MCD10000
                    3D
 Schrodinger Suite 2023-4.
 63 63  0  0  1  0            999 V2000
    4.6375   -2.6676    1.8385 C   0  0  0  0  0  0
    3.6100   -1.6690    2.0863 N   0  0  0  0  0  0
    2.3985   -1.9407    2.5932 C   0  0  0  0  0  0
    2.0428   -3.0757    2.9147 O   0  0  0  0  0  0
    1.4549   -0.7399    2.7772 C   0  0  2  0  0  0
    1.3606   -0.3767    4.2778 C   0  0  0  0  0  0
    2.7029   -0.0504    4.9648 C   0  0  0  0  0  0
    2.5362    0.6613    6.3211 C   0  0  0  0  0  0
    2.7135    2.1917    6.2786 C   0  0  0  0  0  0
    1.7465    2.8642    5.4163 N   0  0  0  0  0  0
    2.0327    3.2845    4.1272 C   0  0  0  0  0  0
    3.0880    3.1014    3.5178 O   0  0  0  0  0  0
    0.9599    3.9370    3.6393 O   0  0  0  0  0  0
    0.9793    4.4767    2.3215 C   0  0  0  0  0  0
    0.0240    3.7141    1.3906 C   0  0  0  0  0  0
    0.3295    2.2054    1.2954 C   0  0  0  0  0  0
   -0.3210    1.4720    0.0946 C   0  0  2  0  0  0
   -1.8347    1.7535   -0.0118 C   0  0  0  0  0  0
   -2.5569    1.6510    0.9816 O   0  0  0  0  0  0
   -2.2939    2.0839   -1.2288 N   0  0  0  0  0  0
   -3.6676    1.8415   -1.4430 O   0  0  0  0  0  0
   -0.0140   -0.0613    0.0155 C   0  0  1  0  0  0
    1.4284   -0.4198   -0.4318 C   0  0  0  0  0  0
    1.7009   -0.2944   -1.9481 C   0  0  0  0  0  0
    1.0533   -1.4299   -2.7605 C   0  0  0  0  0  0
    3.2127   -0.2511   -2.2203 C   0  0  0  0  0  0
   -0.5619   -0.9103    1.1952 C   0  0  0  0  0  0
   -1.6789   -1.4089    1.0699 O   0  0  0  0  0  0
    0.1100   -1.1184    2.3447 N   0  0  0  0  0  0
    5.5127   -2.1967    1.3903 H   0  0  0  0  0  0
    4.2754   -3.4360    1.1538 H   0  0  0  0  0  0
    4.9455   -3.1457    2.7692 H   0  0  0  0  0  0
    3.8305   -0.7108    1.8556 H   0  0  0  0  0  0
    1.8326    0.1222    2.2362 H   0  0  0  0  0  0
    0.6986    0.4848    4.3696 H   0  0  0  0  0  0
    0.8707   -1.1796    4.8317 H   0  0  0  0  0  0
    3.2418   -0.9841    5.1302 H   0  0  0  0  0  0
    3.3406    0.5407    4.3077 H   0  0  0  0  0  0
    1.5739    0.4056    6.7665 H   0  0  0  0  0  0
    3.2863    0.2663    7.0073 H   0  0  0  0  0  0
    2.5931    2.5938    7.2846 H   0  0  0  0  0  0
    3.7331    2.4396    5.9787 H   0  0  0  0  0  0
    0.8291    3.0843    5.7765 H   0  0  0  0  0  0
    0.6680    5.5196    2.3807 H   0  0  0  0  0  0
    1.9830    4.4868    1.8948 H   0  0  0  0  0  0
   -1.0009    3.8654    1.7306 H   0  0  0  0  0  0
    0.0875    4.1619    0.3983 H   0  0  0  0  0  0
    1.4103    2.0938    1.2171 H   0  0  0  0  0  0
    0.0366    1.7332    2.2326 H   0  0  0  0  0  0
    0.1213    1.9256   -0.7931 H   0  0  0  0  0  0
   -1.7804    1.9938   -2.0937 H   0  0  0  0  0  0
   -3.8331    2.2395   -2.2840 H   0  0  0  0  0  0
   -0.6329   -0.4148   -0.8089 H   0  0  0  0  0  0
    2.1341    0.2241    0.0890 H   0  0  0  0  0  0
    1.6752   -1.4387   -0.1325 H   0  0  0  0  0  0
    1.2875    0.6500   -2.3018 H   0  0  0  0  0  0
    1.4195   -2.4050   -2.4378 H   0  0  0  0  0  0
    1.2807   -1.3278   -3.8220 H   0  0  0  0  0  0
   -0.0318   -1.4359   -2.6678 H   0  0  0  0  0  0
    3.7025   -1.1659   -1.8847 H   0  0  0  0  0  0
    3.6835    0.5865   -1.7048 H   0  0  0  0  0  0
    3.4180   -0.1344   -3.2848 H   0  0  0  0  0  0
   -0.3874   -1.6807    3.0200 H   0  0  0  0  0  0
  1  2  1  0  0  0
  1 30  1  0  0  0
  1 31  1  0  0  0
  1 32  1  0  0  0
  2  3  1  0  0  0
  2 33  1  0  0  0
  3  4  2  0  0  0
  3  5  1  0  0  0
  5  6  1  0  0  0
  5 29  1  0  0  0
  5 34  1  0  0  0
  6  7  1  0  0  0
  6 35  1  0  0  0
  6 36  1  0  0  0
  7  8  1  0  0  0
  7 37  1  0  0  0
  7 38  1  0  0  0
  8  9  1  0  0  0
  8 39  1  0  0  0
  8 40  1  0  0  0
  9 10  1  0  0  0
  9 41  1  0  0  0
  9 42  1  0  0  0
 10 11  1  0  0  0
 10 43  1  0  0  0
 11 12  2  0  0  0
 11 13  1  0  0  0
 13 14  1  0  0  0
 14 15  1  0  0  0
 14 44  1  0  0  0
 14 45  1  0  0  0
 15 16  1  0  0  0
 15 46  1  0  0  0
 15 47  1  0  0  0
 16 17  1  0  0  0
 16 48  1  0  0  0
 16 49  1  0  0  0
 17 18  1  0  0  0
 17 22  1  0  0  0
 17 50  1  0  0  0
 18 19  2  0  0  0
 18 20  1  0  0  0
 20 21  1  0  0  0
 20 51  1  0  0  0
 21 52  1  0  0  0
 22 23  1  0  0  0
 22 27  1  0  0  0
 22 53  1  0  0  0
 23 24  1  0  0  0
 23 54  1  0  0  0
 23 55  1  0  0  0
 24 25  1  0  0  0
 24 26  1  0  0  0
 24 56  1  0  0  0
 25 57  1  0  0  0
 25 58  1  0  0  0
 25 59  1  0  0  0
 26 60  1  0  0  0
 26 61  1  0  0  0
 26 62  1  0  0  0
 27 28  2  0  0  0
 27 29  1  0  0  0
 29 63  1  0  0  0
M  END
> <i_epik_Tot_Q>
0

> <i_epik_Tot_abs_Q>
0

> <i_f3d_flags>
0

> <i_lp_mmshare_version>
64135

> <i_m_source_file_index>
1

> <b_lp_Chiralities_Consistent>
1

> <r_epik_Charging_Adjusted_Penalty>
0

> <r_epik_Ionization_Penalty>
0.00537975

> <r_epik_Ionization_Penalty_Charging>
0

> <r_epik_Ionization_Penalty_Neutral>
0.00537975

> <r_epik_State_Penalty>
-0

> <r_lp_Energy>
28.1902

> <r_lp_tautomer_probability>
1

> <s_epik_Chemistry_Notes>
This compound has an ester and may undergo hydrolysis at high or low pH. This compound has a N-S or N-O group and may undergo hydrolysis at high or low pH.

> <s_epik_cmdline>
J2VwaWtfcHl0aG9uJywgJy1waCcsICc3LjAnLCAnLXRuJywgJzgnLCAnLW1hJywgJzIwMCcsICctaW1hZScsICc8aW5maWxlLm1hZT4nLCAnLW9tYWUnLCAnPG91dGZpbGUubWFlPic=

> <s_epik_input>
W0NIM11bTkhdQyg9TylbQ0BASF0xW0NIMl1bQ0gyXVtDSDJdW0NIMl1bTkhdQyg9TylPW0NIMl1bQ0gyXVtDSDJdW0NASF0oQyg9TylbTkhdW09IXSlbQ0BIXShDKD1PKVtOSF0xKVtDSDJdW0NIXShbQ0gzXSlbQ0gzXQ==

> <s_lp_Force_Field>
OPLS_2005

> <s_lp_Variant>
MCD10000-1

> <s_m_source_file>
MCD10000.smi

$$$$
