MCD00001
                    3D
 Schrodinger Suite 2023-4.
 74 79  0  0  1  0            999 V2000
   -2.3057    2.2306   -1.4469 C   0  0  0  0  0  0
   -2.0732    0.8432   -1.8634 N   0  0  0  0  0  0
   -2.8586    0.3886   -3.0228 C   0  0  0  0  0  0
   -4.1372   -0.3747   -2.6655 C   0  0  0  0  0  0
   -4.8622    0.0034   -1.5090 C   0  0  0  0  0  0
   -6.0676   -0.6372   -1.1637 C   0  0  0  0  0  0
   -6.5641   -1.6805   -1.9633 C   0  0  0  0  0  0
   -5.8514   -2.0806   -3.1069 C   0  0  0  0  0  0
   -4.6582   -1.4208   -3.4795 C   0  0  0  0  0  0
   -3.8554   -1.9844   -4.9970 S   0  0  0  0  0  0
   -4.7711   -2.9174   -5.6726 O   0  0  0  0  0  0
   -3.3800   -0.8101   -5.7458 O   0  0  0  0  0  0
   -2.4079   -2.9812   -4.4085 C   0  0  0  0  0  0
   -1.6117   -3.5620   -5.5520 C   0  0  0  0  0  0
   -1.0414   -2.4219   -4.7393 C   0  0  0  0  0  0
   -6.8338   -0.1659   -0.0739 N   0  0  0  0  0  0
   -6.5622   -0.3455    1.2768 C   0  0  0  0  0  0
   -7.1847    0.1969    2.1898 O   0  0  0  0  0  0
   -5.5438   -1.2190    1.4563 O   0  0  0  0  0  0
   -5.2025   -1.6510    2.7698 C   0  0  0  0  0  0
   -4.0457   -0.8285    3.3583 C   0  0  0  0  0  0
   -2.7241   -1.1200    2.6740 C   0  0  0  0  0  0
   -2.0220   -2.2961    2.9982 C   0  0  0  0  0  0
   -0.8064   -2.5829    2.3571 C   0  0  0  0  0  0
   -0.2944   -1.6946    1.3948 C   0  0  0  0  0  0
   -0.9719   -0.4967    1.0532 C   0  0  0  0  0  0
   -2.1956   -0.2316    1.7147 C   0  0  0  0  0  0
   -0.4424    0.4573    0.0208 C   0  0  1  0  0  0
    1.0091    0.4509   -0.1515 N   0  0  0  0  0  0
    1.8918    0.7947    0.8850 C   0  0  0  0  0  0
    3.2620    0.5153    0.7068 C   0  0  0  0  0  0
    4.1994    0.8328    1.7089 C   0  0  0  0  0  0
    3.7773    1.4402    2.9128 C   0  0  0  0  0  0
    4.6859    1.7768    3.9496 C   0  0  0  0  0  0
    6.0599    1.5419    3.8752 N   0  0  0  0  0  0
    4.2237    2.3568    5.0796 N   0  3  0  0  0  0
    2.9200    2.6413    5.2862 C   0  0  0  0  0  0
    1.9688    2.3315    4.2950 C   0  0  0  0  0  0
    2.3986    1.7253    3.0952 C   0  0  0  0  0  0
    1.4663    1.4067    2.0874 C   0  0  0  0  0  0
   -1.1776    0.0160   -1.2663 C   0  0  0  0  0  0
   -0.9395   -1.1101   -1.7104 O   0  0  0  0  0  0
   -1.3826    2.8089   -1.5055 H   0  0  0  0  0  0
   -2.6793    2.2741   -0.4234 H   0  0  0  0  0  0
   -3.0433    2.7368   -2.0698 H   0  0  0  0  0  0
   -3.1400    1.2336   -3.6522 H   0  0  0  0  0  0
   -2.2108   -0.2126   -3.6530 H   0  0  0  0  0  0
   -4.5205    0.8160   -0.8872 H   0  0  0  0  0  0
   -7.4943   -2.1680   -1.7097 H   0  0  0  0  0  0
   -6.2507   -2.8837   -3.7075 H   0  0  0  0  0  0
   -2.6047   -3.5881   -3.5271 H   0  0  0  0  0  0
   -1.1743   -4.5478   -5.4080 H   0  0  0  0  0  0
   -1.9405   -3.3420   -6.5657 H   0  0  0  0  0  0
   -0.2291   -2.6554   -4.0546 H   0  0  0  0  0  0
   -0.9647   -1.4547   -5.2300 H   0  0  0  0  0  0
   -7.6511    0.3887   -0.2838 H   0  0  0  0  0  0
   -6.0689   -1.5989    3.4308 H   0  0  0  0  0  0
   -4.9233   -2.7039    2.7279 H   0  0  0  0  0  0
   -4.2701    0.2376    3.3072 H   0  0  0  0  0  0
   -3.9389   -1.0655    4.4174 H   0  0  0  0  0  0
   -2.4168   -2.9832    3.7325 H   0  0  0  0  0  0
   -0.2686   -3.4881    2.5981 H   0  0  0  0  0  0
    0.6351   -1.9487    0.9072 H   0  0  0  0  0  0
   -2.7448    0.6662    1.4703 H   0  0  0  0  0  0
   -0.7066    1.4729    0.3058 H   0  0  0  0  0  0
    1.3750   -0.0289   -0.9619 H   0  0  0  0  0  0
    3.6030    0.0500   -0.2072 H   0  0  0  0  0  0
    5.2406    0.6030    1.5380 H   0  0  0  0  0  0
    6.4791    1.1096    3.0647 H   0  0  0  0  0  0
    6.6814    1.7943    4.6300 H   0  0  0  0  0  0
    2.6788    3.1051    6.2318 H   0  0  0  0  0  0
    0.9249    2.5576    4.4581 H   0  0  0  0  0  0
    0.4244    1.6358    2.2536 H   0  0  0  0  0  0
    4.8910    2.5922    5.8149 H   0  0  0  0  0  0
  1  2  1  0  0  0
  1 43  1  0  0  0
  1 44  1  0  0  0
  1 45  1  0  0  0
  2  3  1  0  0  0
  2 41  1  0  0  0
  3  4  1  0  0  0
  3 46  1  0  0  0
  3 47  1  0  0  0
  4  5  2  0  0  0
  4  9  1  0  0  0
  5  6  1  0  0  0
  5 48  1  0  0  0
  6  7  2  0  0  0
  6 16  1  0  0  0
  7  8  1  0  0  0
  7 49  1  0  0  0
  8  9  2  0  0  0
  8 50  1  0  0  0
  9 10  1  0  0  0
 10 11  2  0  0  0
 10 12  2  0  0  0
 10 13  1  0  0  0
 13 14  1  0  0  0
 13 15  1  0  0  0
 13 51  1  0  0  0
 14 15  1  0  0  0
 14 52  1  0  0  0
 14 53  1  0  0  0
 15 54  1  0  0  0
 15 55  1  0  0  0
 16 17  1  0  0  0
 16 56  1  0  0  0
 17 18  2  0  0  0
 17 19  1  0  0  0
 19 20  1  0  0  0
 20 21  1  0  0  0
 20 57  1  0  0  0
 20 58  1  0  0  0
 21 22  1  0  0  0
 21 59  1  0  0  0
 21 60  1  0  0  0
 22 23  1  0  0  0
 22 27  2  0  0  0
 23 24  2  0  0  0
 23 61  1  0  0  0
 24 25  1  0  0  0
 24 62  1  0  0  0
 25 26  2  0  0  0
 25 63  1  0  0  0
 26 27  1  0  0  0
 26 28  1  0  0  0
 27 64  1  0  0  0
 28 29  1  0  0  0
 28 41  1  0  0  0
 28 65  1  0  0  0
 29 30  1  0  0  0
 29 66  1  0  0  0
 30 31  2  0  0  0
 30 40  1  0  0  0
 31 32  1  0  0  0
 31 67  1  0  0  0
 32 33  2  0  0  0
 32 68  1  0  0  0
 33 34  1  0  0  0
 33 39  1  0  0  0
 34 35  1  0  0  0
 34 36  2  0  0  0
 35 69  1  0  0  0
 35 70  1  0  0  0
 36 37  1  0  0  0
 36 74  1  0  0  0
 37 38  2  0  0  0
 37 71  1  0  0  0
 38 39  1  0  0  0
 38 72  1  0  0  0
 39 40  2  0  0  0
 40 73  1  0  0  0
 41 42  2  0  0  0
M  CHG  1  36   1
M  END
> <i_epik_Tot_Q>
1

> <i_epik_Tot_abs_Q>
1

> <i_f3d_flags>
0

> <i_lp_mmshare_version>
64135

> <i_m_source_file_index>
1

> <b_lp_Chiralities_Consistent>
1

> <r_epik_Charging_Adjusted_Penalty>
0.00992729

> <r_epik_Ionization_Penalty>
0.00496796

> <r_epik_Ionization_Penalty_Charging>
0.00496364

> <r_epik_Ionization_Penalty_Neutral>
4.3164e-06

> <r_epik_State_Penalty>
0.00496364

> <r_lp_Energy>
54.9234

> <s_epik_Chemistry_Notes>
This compound has an ester and may undergo hydrolysis at high or low pH.

> <s_epik_cmdline>
J2VwaWtfcHl0aG9uJywgJy1waCcsICc3LjAnLCAnLXRuJywgJzgnLCAnLW1hJywgJzIwMCcsICctaW1hZScsICc8aW5maWxlLm1hZT4nLCAnLW9tYWUnLCAnPG91dGZpbGUubWFlPic=

> <s_epik_input>
W05IMl1jMW5bY0hdW2NIXWMoYzEyKVtjSF1jKFtjSF1bY0hdMilbTkhdW0NAQEhdKEMoPU8pTihbQ0gzXSlbQ0gyXTMpYyhbY0hdNClbY0hdW2NIXVtjSF1jNFtDSDJdW0NIMl1PQyg9TylbTkhdYyhbY0hdYzM1KVtjSF1bY0hdYzVTKD1PKSg9TylbQ0hdNltDSDJdW0NIMl02

> <s_lp_Force_Field>
OPLS_2005

> <s_lp_Variant>
MCD00001-1

> <s_m_source_file>
MCD00001.smi

$$$$
MCD00001
                    3D
 Schrodinger Suite 2023-4.
 74 79  0  0  1  0            999 V2000
    2.1517   -2.0284    1.9680 C   0  0  0  0  0  0
    0.6899   -1.9756    2.0871 N   0  0  0  0  0  0
    0.1636   -2.9287    3.0841 C   0  0  0  0  0  0
    0.2689   -4.4165    2.7320 C   0  0  0  0  0  0
    0.6693   -4.8197    1.4314 C   0  0  0  0  0  0
    0.8832   -6.1812    1.1233 C   0  0  0  0  0  0
    0.6650   -7.1579    2.1099 C   0  0  0  0  0  0
    0.2197   -6.7826    3.3873 C   0  0  0  0  0  0
    0.0149   -5.4237    3.7068 C   0  0  0  0  0  0
   -0.4673   -5.0736    5.4156 S   0  0  0  0  0  0
   -1.2890   -3.8544    5.4620 O   0  0  0  0  0  0
   -1.0262   -6.3112    5.9823 O   0  0  0  0  0  0
    1.1430   -4.7639    6.2777 C   0  0  0  0  0  0
    1.4446   -3.3184    6.6037 C   0  0  0  0  0  0
    0.9603   -4.2576    7.6872 C   0  0  0  0  0  0
    1.4454   -6.6091   -0.1063 N   0  0  0  0  0  0
    1.1960   -6.1684   -1.4021 C   0  0  0  0  0  0
    1.8442   -6.5259   -2.3858 O   0  0  0  0  0  0
    0.1214   -5.3479   -1.4587 O   0  0  0  0  0  0
   -0.4119   -4.9871   -2.7302 C   0  0  0  0  0  0
    0.2562   -3.7318   -3.3170 C   0  0  0  0  0  0
   -0.2836   -2.4503   -2.7130 C   0  0  0  0  0  0
   -1.3811   -1.8116   -3.3213 C   0  0  0  0  0  0
   -1.9035   -0.6345   -2.7628 C   0  0  0  0  0  0
   -1.3353   -0.1031   -1.5915 C   0  0  0  0  0  0
   -0.2351   -0.7235   -0.9537 C   0  0  0  0  0  0
    0.2893   -1.8994   -1.5478 C   0  0  0  0  0  0
    0.3206   -0.1405    0.3050 C   0  0  2  0  0  0
    1.7253    0.2355    0.1655 N   0  0  0  0  0  0
    2.3373    1.1811    1.0046 C   0  0  0  0  0  0
    3.6131    1.6579    0.6406 C   0  0  0  0  0  0
    4.2887    2.5970    1.4437 C   0  0  0  0  0  0
    3.6960    3.0739    2.6344 C   0  0  0  0  0  0
    4.3421    4.0155    3.4768 C   0  0  0  0  0  0
    5.6024    4.5514    3.2069 N   0  0  0  0  0  0
    3.7285    4.4312    4.6073 N   0  3  0  0  0  0
    2.5094    3.9949    4.9912 C   0  0  0  0  0  0
    1.8163    3.0610    4.1971 C   0  0  0  0  0  0
    2.4124    2.5945    3.0060 C   0  0  0  0  0  0
    1.7401    1.6577    2.1953 C   0  0  0  0  0  0
   -0.1481   -1.1502    1.3960 C   0  0  0  0  0  0
   -1.3617   -1.1609    1.6141 O   0  0  0  0  0  0
    2.4653   -2.1482    0.9312 H   0  0  0  0  0  0
    2.5775   -2.8707    2.5149 H   0  0  0  0  0  0
    2.6080   -1.1331    2.3868 H   0  0  0  0  0  0
    0.7204   -2.7566    4.0027 H   0  0  0  0  0  0
   -0.8762   -2.7233    3.3332 H   0  0  0  0  0  0
    0.8769   -4.0823    0.6719 H   0  0  0  0  0  0
    0.8498   -8.2003    1.8947 H   0  0  0  0  0  0
    0.0653   -7.5525    4.1282 H   0  0  0  0  0  0
    1.9206   -5.4921    6.0565 H   0  0  0  0  0  0
    2.4909   -3.0217    6.6316 H   0  0  0  0  0  0
    0.7534   -2.5400    6.2894 H   0  0  0  0  0  0
    1.6852   -4.5769    8.4331 H   0  0  0  0  0  0
   -0.0558   -4.1230    8.0532 H   0  0  0  0  0  0
    2.1134   -7.3641   -0.0497 H   0  0  0  0  0  0
   -0.2983   -5.8210   -3.4247 H   0  0  0  0  0  0
   -1.4861   -4.8273   -2.6349 H   0  0  0  0  0  0
    1.3397   -3.7739   -3.1999 H   0  0  0  0  0  0
    0.0726   -3.7036   -4.3915 H   0  0  0  0  0  0
   -1.8279   -2.2240   -4.2141 H   0  0  0  0  0  0
   -2.7460   -0.1432   -3.2269 H   0  0  0  0  0  0
   -1.7622    0.7959   -1.1715 H   0  0  0  0  0  0
    1.1284   -2.4001   -1.0878 H   0  0  0  0  0  0
   -0.2128    0.7887    0.5122 H   0  0  0  0  0  0
    2.1876   -0.0172   -0.6962 H   0  0  0  0  0  0
    4.0846    1.3012   -0.2639 H   0  0  0  0  0  0
    5.2644    2.9394    1.1326 H   0  0  0  0  0  0
    6.1194    4.2956    2.3778 H   0  0  0  0  0  0
    6.0372    5.2194    3.8271 H   0  0  0  0  0  0
    2.1281    4.4030    5.9162 H   0  0  0  0  0  0
    0.8409    2.7100    4.5027 H   0  0  0  0  0  0
    0.7687    1.3058    2.5084 H   0  0  0  0  0  0
    4.2082    5.1076    5.2021 H   0  0  0  0  0  0
  1  2  1  0  0  0
  1 43  1  0  0  0
  1 44  1  0  0  0
  1 45  1  0  0  0
  2  3  1  0  0  0
  2 41  1  0  0  0
  3  4  1  0  0  0
  3 46  1  0  0  0
  3 47  1  0  0  0
  4  5  2  0  0  0
  4  9  1  0  0  0
  5  6  1  0  0  0
  5 48  1  0  0  0
  6  7  2  0  0  0
  6 16  1  0  0  0
  7  8  1  0  0  0
  7 49  1  0  0  0
  8  9  2  0  0  0
  8 50  1  0  0  0
  9 10  1  0  0  0
 10 11  2  0  0  0
 10 12  2  0  0  0
 10 13  1  0  0  0
 13 14  1  0  0  0
 13 15  1  0  0  0
 13 51  1  0  0  0
 14 15  1  0  0  0
 14 52  1  0  0  0
 14 53  1  0  0  0
 15 54  1  0  0  0
 15 55  1  0  0  0
 16 17  1  0  0  0
 16 56  1  0  0  0
 17 18  2  0  0  0
 17 19  1  0  0  0
 19 20  1  0  0  0
 20 21  1  0  0  0
 20 57  1  0  0  0
 20 58  1  0  0  0
 21 22  1  0  0  0
 21 59  1  0  0  0
 21 60  1  0  0  0
 22 23  1  0  0  0
 22 27  2  0  0  0
 23 24  2  0  0  0
 23 61  1  0  0  0
 24 25  1  0  0  0
 24 62  1  0  0  0
 25 26  2  0  0  0
 25 63  1  0  0  0
 26 27  1  0  0  0
 26 28  1  0  0  0
 27 64  1  0  0  0
 28 29  1  0  0  0
 28 41  1  0  0  0
 28 65  1  0  0  0
 29 30  1  0  0  0
 29 66  1  0  0  0
 30 31  2  0  0  0
 30 40  1  0  0  0
 31 32  1  0  0  0
 31 67  1  0  0  0
 32 33  2  0  0  0
 32 68  1  0  0  0
 33 34  1  0  0  0
 33 39  1  0  0  0
 34 35  1  0  0  0
 34 36  2  0  0  0
 35 69  1  0  0  0
 35 70  1  0  0  0
 36 37  1  0  0  0
 36 74  1  0  0  0
 37 38  2  0  0  0
 37 71  1  0  0  0
 38 39  1  0  0  0
 38 72  1  0  0  0
 39 40  2  0  0  0
 40 73  1  0  0  0
 41 42  2  0  0  0
M  CHG  1  36   1
M  END
> <i_epik_Tot_Q>
1

> <i_epik_Tot_abs_Q>
1

> <i_f3d_flags>
0

> <i_lp_mmshare_version>
64135

> <i_m_source_file_index>
1

> <b_lp_Chiralities_Consistent>
1

> <r_epik_Charging_Adjusted_Penalty>
0.00992729

> <r_epik_Ionization_Penalty>
0.00496796

> <r_epik_Ionization_Penalty_Charging>
0.00496364

> <r_epik_Ionization_Penalty_Neutral>
4.3164e-06

> <r_epik_State_Penalty>
0.00496364

> <r_lp_Energy>
59.8175

> <s_epik_Chemistry_Notes>
This compound has an ester and may undergo hydrolysis at high or low pH.

> <s_epik_cmdline>
J2VwaWtfcHl0aG9uJywgJy1waCcsICc3LjAnLCAnLXRuJywgJzgnLCAnLW1hJywgJzIwMCcsICctaW1hZScsICc8aW5maWxlLm1hZT4nLCAnLW9tYWUnLCAnPG91dGZpbGUubWFlPic=

> <s_epik_input>
W05IMl1jMW5bY0hdW2NIXWMoYzEyKVtjSF1jKFtjSF1bY0hdMilbTkhdW0NAQEhdKEMoPU8pTihbQ0gzXSlbQ0gyXTMpYyhbY0hdNClbY0hdW2NIXVtjSF1jNFtDSDJdW0NIMl1PQyg9TylbTkhdYyhbY0hdYzM1KVtjSF1bY0hdYzVTKD1PKSg9TylbQ0hdNltDSDJdW0NIMl02

> <s_lp_Force_Field>
OPLS_2005

> <s_lp_Variant>
MCD00001-2

> <s_m_source_file>
MCD00001.smi

$$$$
MCD00002
                    3D
 Schrodinger Suite 2023-4.
 73 78  0  0  1  0            999 V2000
   -2.5226   -0.4391   -1.0102 C   0  0  0  0  0  0
   -1.3772   -1.1796   -1.5474 N   0  0  0  0  0  0
   -1.7507   -2.2715   -2.4675 C   0  0  0  0  0  0
   -1.9110   -3.6144   -1.7462 C   0  0  0  0  0  0
   -0.7380   -4.2269   -1.2506 C   0  0  0  0  0  0
   -0.7859   -5.4245   -0.5196 C   0  0  0  0  0  0
   -2.0168   -6.0731   -0.3164 C   0  0  0  0  0  0
   -3.1933   -5.5043   -0.8363 C   0  0  0  0  0  0
   -3.1562   -4.2785   -1.5417 C   0  0  0  0  0  0
   -4.7242   -3.6837   -2.2114 S   0  0  0  0  0  0
   -5.7923   -4.5654   -1.7124 O   0  0  0  0  0  0
   -4.8351   -2.2397   -1.9623 O   0  0  0  0  0  0
   -4.5445   -3.9553   -4.0359 C   0  0  0  0  0  0
   -4.7017   -5.4004   -4.4430 C   0  0  0  0  0  0
   -5.8083   -4.4053   -4.7282 C   0  0  0  0  0  0
    0.4249   -5.9887   -0.0651 N   0  0  0  0  0  0
    0.8861   -5.9986    1.1975 C   0  0  0  0  0  0
    2.0145   -6.4206    1.4429 O   0  0  0  0  0  0
    0.0269   -5.4670    2.3569 C   0  0  0  0  0  0
    0.6408   -4.2292    3.0457 C   0  0  0  0  0  0
   -0.0422   -2.9275    2.6615 C   0  0  0  0  0  0
   -1.1416   -2.4762    3.4157 C   0  0  0  0  0  0
   -1.7623   -1.2600    3.0887 C   0  0  0  0  0  0
   -1.2896   -0.4998    2.0042 C   0  0  0  0  0  0
   -0.2016   -0.9331    1.2105 C   0  0  0  0  0  0
    0.4186   -2.1580    1.5713 C   0  0  0  0  0  0
    0.2698   -0.1010    0.0490 C   0  0  1  0  0  0
    1.6884    0.2492    0.1211 N   0  0  0  0  0  0
    2.2274    0.9059    1.2374 C   0  0  0  0  0  0
    1.4524    1.7235    2.0920 C   0  0  0  0  0  0
    2.0398    2.3570    3.2040 C   0  0  0  0  0  0
    3.4156    2.1875    3.4779 C   0  0  0  0  0  0
    4.0469    2.8042    4.5889 C   0  0  0  0  0  0
    3.3749    3.6205    5.5003 N   0  0  0  0  0  0
    5.3673    2.6072    4.8004 N   0  3  0  0  0  0
    6.1396    1.8424    3.9989 C   0  0  0  0  0  0
    5.5720    1.2035    2.8793 C   0  0  0  0  0  0
    4.1966    1.3751    2.6141 C   0  0  0  0  0  0
    3.6022    0.7445    1.5024 C   0  0  0  0  0  0
   -0.0816   -0.9482   -1.2014 C   0  0  0  0  0  0
    0.8514   -1.4385   -1.8419 O   0  0  0  0  0  0
   -2.2702    0.5365   -0.6016 H   0  0  0  0  0  0
   -3.0183   -1.0210   -0.2327 H   0  0  0  0  0  0
   -3.2501   -0.2352   -1.7952 H   0  0  0  0  0  0
   -2.6391   -2.0034   -3.0317 H   0  0  0  0  0  0
   -0.9906   -2.3962   -3.2404 H   0  0  0  0  0  0
    0.2256   -3.7739   -1.4170 H   0  0  0  0  0  0
   -2.0604   -7.0093    0.2210 H   0  0  0  0  0  0
   -4.1248   -6.0283   -0.6855 H   0  0  0  0  0  0
   -3.8137   -3.3176   -4.5274 H   0  0  0  0  0  0
   -4.1126   -5.7485   -5.2887 H   0  0  0  0  0  0
   -4.8748   -6.1399   -3.6636 H   0  0  0  0  0  0
   -5.9472   -4.0967   -5.7623 H   0  0  0  0  0  0
   -6.7218   -4.4803   -4.1422 H   0  0  0  0  0  0
    1.0773   -6.2755   -0.7808 H   0  0  0  0  0  0
   -1.0140   -5.2896    2.0892 H   0  0  0  0  0  0
   -0.0056   -6.2777    3.0858 H   0  0  0  0  0  0
    0.5588   -4.3471    4.1270 H   0  0  0  0  0  0
    1.7104   -4.1428    2.8475 H   0  0  0  0  0  0
   -1.5057   -3.0558    4.2514 H   0  0  0  0  0  0
   -2.6006   -0.9078    3.6714 H   0  0  0  0  0  0
   -1.7808    0.4341    1.7745 H   0  0  0  0  0  0
    1.2608   -2.5149    0.9961 H   0  0  0  0  0  0
   -0.2638    0.8461   -0.0097 H   0  0  0  0  0  0
    2.3131   -0.3175   -0.4353 H   0  0  0  0  0  0
    0.4004    1.8791    1.9069 H   0  0  0  0  0  0
    1.4186    2.9720    3.8379 H   0  0  0  0  0  0
    2.3877    3.8131    5.4095 H   0  0  0  0  0  0
    3.8510    4.0400    6.2858 H   0  0  0  0  0  0
    7.1810    1.7651    4.2759 H   0  0  0  0  0  0
    6.1878    0.5905    2.2368 H   0  0  0  0  0  0
    4.2044    0.1267    0.8515 H   0  0  0  0  0  0
    5.8048    3.0578    5.6045 H   0  0  0  0  0  0
  1  2  1  0  0  0
  1 42  1  0  0  0
  1 43  1  0  0  0
  1 44  1  0  0  0
  2  3  1  0  0  0
  2 40  1  0  0  0
  3  4  1  0  0  0
  3 45  1  0  0  0
  3 46  1  0  0  0
  4  5  2  0  0  0
  4  9  1  0  0  0
  5  6  1  0  0  0
  5 47  1  0  0  0
  6  7  2  0  0  0
  6 16  1  0  0  0
  7  8  1  0  0  0
  7 48  1  0  0  0
  8  9  2  0  0  0
  8 49  1  0  0  0
  9 10  1  0  0  0
 10 11  2  0  0  0
 10 12  2  0  0  0
 10 13  1  0  0  0
 13 14  1  0  0  0
 13 15  1  0  0  0
 13 50  1  0  0  0
 14 15  1  0  0  0
 14 51  1  0  0  0
 14 52  1  0  0  0
 15 53  1  0  0  0
 15 54  1  0  0  0
 16 17  1  0  0  0
 16 55  1  0  0  0
 17 18  2  0  0  0
 17 19  1  0  0  0
 19 20  1  0  0  0
 19 56  1  0  0  0
 19 57  1  0  0  0
 20 21  1  0  0  0
 20 58  1  0  0  0
 20 59  1  0  0  0
 21 22  1  0  0  0
 21 26  2  0  0  0
 22 23  2  0  0  0
 22 60  1  0  0  0
 23 24  1  0  0  0
 23 61  1  0  0  0
 24 25  2  0  0  0
 24 62  1  0  0  0
 25 26  1  0  0  0
 25 27  1  0  0  0
 26 63  1  0  0  0
 27 28  1  0  0  0
 27 40  1  0  0  0
 27 64  1  0  0  0
 28 29  1  0  0  0
 28 65  1  0  0  0
 29 30  2  0  0  0
 29 39  1  0  0  0
 30 31  1  0  0  0
 30 66  1  0  0  0
 31 32  2  0  0  0
 31 67  1  0  0  0
 32 33  1  0  0  0
 32 38  1  0  0  0
 33 34  1  0  0  0
 33 35  2  0  0  0
 34 68  1  0  0  0
 34 69  1  0  0  0
 35 36  1  0  0  0
 35 73  1  0  0  0
 36 37  2  0  0  0
 36 70  1  0  0  0
 37 38  1  0  0  0
 37 71  1  0  0  0
 38 39  2  0  0  0
 39 72  1  0  0  0
 40 41  2  0  0  0
M  CHG  1  35   1
M  END
> <i_epik_Tot_Q>
1

> <i_epik_Tot_abs_Q>
1

> <i_f3d_flags>
0

> <i_lp_mmshare_version>
64135

> <i_m_source_file_index>
1

> <b_lp_Chiralities_Consistent>
1

> <r_epik_Charging_Adjusted_Penalty>
0.00992729

> <r_epik_Ionization_Penalty>
0.00497965

> <r_epik_Ionization_Penalty_Charging>
0.00496364

> <r_epik_Ionization_Penalty_Neutral>
1.60109e-05

> <r_epik_State_Penalty>
0.00496364

> <r_lp_Energy>
59.6413

> <s_epik_cmdline>
J2VwaWtfcHl0aG9uJywgJy1waCcsICc3LjAnLCAnLXRuJywgJzgnLCAnLW1hJywgJzIwMCcsICctaW1hZScsICc8aW5maWxlLm1hZT4nLCAnLW9tYWUnLCAnPG91dGZpbGUubWFlPic=

> <s_epik_input>
W05IMl1jMW5bY0hdW2NIXWMoYzEyKVtjSF1jKFtjSF1bY0hdMilbTkhdW0NAQEhdKEMoPU8pTihbQ0gzXSlbQ0gyXTMpYyhbY0hdNClbY0hdW2NIXVtjSF1jNFtDSDJdW0NIMl1DKD1PKVtOSF1jKFtjSF1jMzUpW2NIXVtjSF1jNVMoPU8pKD1PKVtDSF02W0NIMl1bQ0gyXTY=

> <s_lp_Force_Field>
OPLS_2005

> <s_lp_Variant>
MCD00002-1

> <s_m_source_file>
MCD00002.smi

$$$$
MCD00002
                    3D
 Schrodinger Suite 2023-4.
 73 78  0  0  1  0            999 V2000
   -0.2720   -3.0975   -0.5284 C   0  0  0  0  0  0
   -0.7452   -2.1425    0.4808 N   0  0  0  0  0  0
   -1.3406   -2.7817    1.6678 C   0  0  0  0  0  0
   -2.7854   -3.2681    1.5089 C   0  0  0  0  0  0
   -3.7050   -2.4959    0.7538 C   0  0  0  0  0  0
   -5.0518   -2.9008    0.6054 C   0  0  0  0  0  0
   -5.4942   -4.0808    1.2267 C   0  0  0  0  0  0
   -4.5993   -4.8582    1.9791 C   0  0  0  0  0  0
   -3.2577   -4.4517    2.1467 C   0  0  0  0  0  0
   -2.2180   -5.5146    3.1767 S   0  0  0  0  0  0
   -1.3513   -4.6700    4.0142 O   0  0  0  0  0  0
   -3.0934   -6.4902    3.8452 O   0  0  0  0  0  0
   -1.1878   -6.4636    1.9626 C   0  0  0  0  0  0
    0.2911   -6.1446    1.9557 C   0  0  0  0  0  0
   -0.2129   -7.3936    2.6430 C   0  0  0  0  0  0
   -6.0166   -2.1000   -0.0568 N   0  0  0  0  0  0
   -6.0502   -1.6949   -1.3409 C   0  0  0  0  0  0
   -7.0024   -1.0361   -1.7547 O   0  0  0  0  0  0
   -4.9361   -2.0771   -2.3269 C   0  0  0  0  0  0
   -4.4167   -0.8673   -3.1352 C   0  0  0  0  0  0
   -2.9067   -0.8893   -3.2277 C   0  0  0  0  0  0
   -2.2531   -1.4622   -4.3328 C   0  0  0  0  0  0
   -0.8511   -1.5566   -4.3294 C   0  0  0  0  0  0
   -0.1150   -1.1076   -3.2157 C   0  0  0  0  0  0
   -0.7487   -0.5319   -2.0838 C   0  0  0  0  0  0
   -2.1555   -0.3967   -2.1453 C   0  0  0  0  0  0
    0.0037   -0.0952   -0.8517 C   0  0  2  0  0  0
    1.4588   -0.2349   -0.8700 N   0  0  0  0  0  0
    2.2974    0.6191   -1.6048 C   0  0  0  0  0  0
    1.8086    1.6394   -2.4550 C   0  0  0  0  0  0
    2.6979    2.4691   -3.1642 C   0  0  0  0  0  0
    4.0939    2.2953   -3.0354 C   0  0  0  0  0  0
    5.0243    3.1107   -3.7300 C   0  0  0  0  0  0
    4.6486    4.1441   -4.5898 N   0  0  0  0  0  0
    6.3492    2.8981   -3.5682 N   0  3  0  0  0  0
    6.8519    1.9341   -2.7672 C   0  0  0  0  0  0
    5.9797    1.0915   -2.0509 C   0  0  0  0  0  0
    4.5863    1.2715   -2.1840 C   0  0  0  0  0  0
    3.6902    0.4433   -1.4779 C   0  0  0  0  0  0
   -0.6491   -0.7884    0.3752 C   0  0  0  0  0  0
   -1.0745   -0.0466    1.2620 O   0  0  0  0  0  0
    0.6999   -2.8192   -0.9344 H   0  0  0  0  0  0
   -0.9882   -3.1657   -1.3474 H   0  0  0  0  0  0
   -0.1611   -4.1054   -0.1290 H   0  0  0  0  0  0
   -0.6856   -3.6050    1.9269 H   0  0  0  0  0  0
   -1.3068   -2.1301    2.5420 H   0  0  0  0  0  0
   -3.3894   -1.5681    0.3029 H   0  0  0  0  0  0
   -6.5253   -4.3907    1.1366 H   0  0  0  0  0  0
   -4.9678   -5.7592    2.4454 H   0  0  0  0  0  0
   -1.7268   -6.8016    1.0802 H   0  0  0  0  0  0
    0.8227   -6.2725    1.0153 H   0  0  0  0  0  0
    0.6726   -5.3530    2.5957 H   0  0  0  0  0  0
   -0.0085   -8.3470    2.1607 H   0  0  0  0  0  0
   -0.1964   -7.4092    3.7310 H   0  0  0  0  0  0
   -6.8536   -1.9082    0.4747 H   0  0  0  0  0  0
   -4.1102   -2.5632   -1.8130 H   0  0  0  0  0  0
   -5.3207   -2.8332   -3.0118 H   0  0  0  0  0  0
   -4.8467   -0.8727   -4.1377 H   0  0  0  0  0  0
   -4.7137    0.0810   -2.6837 H   0  0  0  0  0  0
   -2.8201   -1.8455   -5.1687 H   0  0  0  0  0  0
   -0.3393   -2.0009   -5.1703 H   0  0  0  0  0  0
    0.9567   -1.2337   -3.2369 H   0  0  0  0  0  0
   -2.6835    0.0402   -1.3099 H   0  0  0  0  0  0
   -0.1902    0.9696   -0.7111 H   0  0  0  0  0  0
    1.8726   -0.9191   -0.2529 H   0  0  0  0  0  0
    0.7488    1.8021   -2.5821 H   0  0  0  0  0  0
    2.2905    3.2369   -3.8050 H   0  0  0  0  0  0
    3.6775    4.3645   -4.7575 H   0  0  0  0  0  0
    5.3343    4.7089   -5.0699 H   0  0  0  0  0  0
    7.9294    1.8665   -2.7239 H   0  0  0  0  0  0
    6.3798    0.3197   -1.4094 H   0  0  0  0  0  0
    4.0752   -0.3322   -0.8312 H   0  0  0  0  0  0
    7.0040    3.4940   -4.0752 H   0  0  0  0  0  0
  1  2  1  0  0  0
  1 42  1  0  0  0
  1 43  1  0  0  0
  1 44  1  0  0  0
  2  3  1  0  0  0
  2 40  1  0  0  0
  3  4  1  0  0  0
  3 45  1  0  0  0
  3 46  1  0  0  0
  4  5  2  0  0  0
  4  9  1  0  0  0
  5  6  1  0  0  0
  5 47  1  0  0  0
  6  7  2  0  0  0
  6 16  1  0  0  0
  7  8  1  0  0  0
  7 48  1  0  0  0
  8  9  2  0  0  0
  8 49  1  0  0  0
  9 10  1  0  0  0
 10 11  2  0  0  0
 10 12  2  0  0  0
 10 13  1  0  0  0
 13 14  1  0  0  0
 13 15  1  0  0  0
 13 50  1  0  0  0
 14 15  1  0  0  0
 14 51  1  0  0  0
 14 52  1  0  0  0
 15 53  1  0  0  0
 15 54  1  0  0  0
 16 17  1  0  0  0
 16 55  1  0  0  0
 17 18  2  0  0  0
 17 19  1  0  0  0
 19 20  1  0  0  0
 19 56  1  0  0  0
 19 57  1  0  0  0
 20 21  1  0  0  0
 20 58  1  0  0  0
 20 59  1  0  0  0
 21 22  1  0  0  0
 21 26  2  0  0  0
 22 23  2  0  0  0
 22 60  1  0  0  0
 23 24  1  0  0  0
 23 61  1  0  0  0
 24 25  2  0  0  0
 24 62  1  0  0  0
 25 26  1  0  0  0
 25 27  1  0  0  0
 26 63  1  0  0  0
 27 28  1  0  0  0
 27 40  1  0  0  0
 27 64  1  0  0  0
 28 29  1  0  0  0
 28 65  1  0  0  0
 29 30  2  0  0  0
 29 39  1  0  0  0
 30 31  1  0  0  0
 30 66  1  0  0  0
 31 32  2  0  0  0
 31 67  1  0  0  0
 32 33  1  0  0  0
 32 38  1  0  0  0
 33 34  1  0  0  0
 33 35  2  0  0  0
 34 68  1  0  0  0
 34 69  1  0  0  0
 35 36  1  0  0  0
 35 73  1  0  0  0
 36 37  2  0  0  0
 36 70  1  0  0  0
 37 38  1  0  0  0
 37 71  1  0  0  0
 38 39  2  0  0  0
 39 72  1  0  0  0
 40 41  2  0  0  0
M  CHG  1  35   1
M  END
> <i_epik_Tot_Q>
1

> <i_epik_Tot_abs_Q>
1

> <i_f3d_flags>
0

> <i_lp_mmshare_version>
64135

> <i_m_source_file_index>
1

> <b_lp_Chiralities_Consistent>
1

> <r_epik_Charging_Adjusted_Penalty>
0.00992729

> <r_epik_Ionization_Penalty>
0.00497965

> <r_epik_Ionization_Penalty_Charging>
0.00496364

> <r_epik_Ionization_Penalty_Neutral>
1.60109e-05

> <r_epik_State_Penalty>
0.00496364

> <r_lp_Energy>
64.4992

> <s_epik_cmdline>
J2VwaWtfcHl0aG9uJywgJy1waCcsICc3LjAnLCAnLXRuJywgJzgnLCAnLW1hJywgJzIwMCcsICctaW1hZScsICc8aW5maWxlLm1hZT4nLCAnLW9tYWUnLCAnPG91dGZpbGUubWFlPic=

> <s_epik_input>
W05IMl1jMW5bY0hdW2NIXWMoYzEyKVtjSF1jKFtjSF1bY0hdMilbTkhdW0NAQEhdKEMoPU8pTihbQ0gzXSlbQ0gyXTMpYyhbY0hdNClbY0hdW2NIXVtjSF1jNFtDSDJdW0NIMl1DKD1PKVtOSF1jKFtjSF1jMzUpW2NIXVtjSF1jNVMoPU8pKD1PKVtDSF02W0NIMl1bQ0gyXTY=

> <s_lp_Force_Field>
OPLS_2005

> <s_lp_Variant>
MCD00002-2

> <s_m_source_file>
MCD00002.smi

$$$$
MCD00003
                    3D
 Schrodinger Suite 2023-4.
 45 47  0  0  1  0            999 V2000
    0.0697    0.1704    0.5925 C   0  0  0  0  0  0
    1.4743    0.0571    0.1898 N   0  0  0  0  0  0
    2.2117   -1.0748   -0.0537 C   0  0  0  0  0  0
    3.4842   -0.6929   -0.4033 C   0  0  0  0  0  0
    3.4821    0.6787   -0.3928 N   0  3  0  0  0  0
    2.2637    1.1096   -0.0421 C   0  0  0  0  0  0
    1.8574    2.4179    0.0684 O   0  0  0  0  0  0
    2.4856    3.3537   -0.8006 C   0  0  0  0  0  0
    2.0430    3.1411   -2.2596 C   0  0  0  0  0  0
    0.5380    3.2606   -2.4233 C   0  0  0  0  0  0
   -0.2931    2.2994   -2.8650 C   0  0  0  0  0  0
    0.1110    0.8990   -3.2880 C   0  0  0  0  0  0
   -1.1025   -0.0088   -3.5511 C   0  0  0  0  0  0
   -0.7190   -1.4275   -4.0103 C   0  0  0  0  0  0
   -0.5850   -2.4574   -2.8771 C   0  0  0  0  0  0
    0.4209   -2.0584   -1.9562 O   0  0  0  0  0  0
    0.7445   -2.9111   -0.9184 C   0  0  0  0  0  0
    0.2087   -4.2168   -0.7757 C   0  0  0  0  0  0
    0.6092   -5.0419    0.2916 C   0  0  0  0  0  0
    1.5480   -4.5754    1.2273 C   0  0  0  0  0  0
    2.0765   -3.2786    1.0994 C   0  0  0  0  0  0
    1.6744   -2.4390    0.0396 C   0  0  0  0  0  0
   -0.0778    1.0779    1.1785 H   0  0  0  0  0  0
   -0.2071   -0.6926    1.1984 H   0  0  0  0  0  0
   -0.5544    0.2053   -0.3004 H   0  0  0  0  0  0
    4.3559   -1.2738   -0.6669 H   0  0  0  0  0  0
    2.1994    4.3541   -0.4751 H   0  0  0  0  0  0
    3.5719    3.3072   -0.7118 H   0  0  0  0  0  0
    2.5104    3.8953   -2.8930 H   0  0  0  0  0  0
    2.3964    2.1791   -2.6293 H   0  0  0  0  0  0
    0.1173    4.2194   -2.1567 H   0  0  0  0  0  0
   -1.3451    2.5332   -2.9457 H   0  0  0  0  0  0
    0.7132    0.9781   -4.1937 H   0  0  0  0  0  0
    0.7508    0.4645   -2.5221 H   0  0  0  0  0  0
   -1.7427   -0.0593   -2.6694 H   0  0  0  0  0  0
   -1.7061    0.4529   -4.3339 H   0  0  0  0  0  0
   -1.4933   -1.7877   -4.6888 H   0  0  0  0  0  0
    0.1974   -1.3982   -4.6008 H   0  0  0  0  0  0
   -1.5384   -2.5737   -2.3597 H   0  0  0  0  0  0
   -0.3265   -3.4180   -3.3246 H   0  0  0  0  0  0
   -0.5103   -4.6149   -1.4750 H   0  0  0  0  0  0
    0.1975   -6.0356    0.3901 H   0  0  0  0  0  0
    1.8577   -5.2090    2.0455 H   0  0  0  0  0  0
    2.7886   -2.9222    1.8294 H   0  0  0  0  0  0
    4.2700    1.2728   -0.6175 H   0  0  0  0  0  0
  1  2  1  0  0  0
  1 23  1  0  0  0
  1 24  1  0  0  0
  1 25  1  0  0  0
  2  3  1  0  0  0
  2  6  1  0  0  0
  3  4  2  0  0  0
  3 22  1  0  0  0
  4  5  1  0  0  0
  4 26  1  0  0  0
  5  6  2  0  0  0
  5 45  1  0  0  0
  6  7  1  0  0  0
  7  8  1  0  0  0
  8  9  1  0  0  0
  8 27  1  0  0  0
  8 28  1  0  0  0
  9 10  1  0  0  0
  9 29  1  0  0  0
  9 30  1  0  0  0
 10 11  2  0  0  0
 10 31  1  0  0  0
 11 12  1  0  0  0
 11 32  1  0  0  0
 12 13  1  0  0  0
 12 33  1  0  0  0
 12 34  1  0  0  0
 13 14  1  0  0  0
 13 35  1  0  0  0
 13 36  1  0  0  0
 14 15  1  0  0  0
 14 37  1  0  0  0
 14 38  1  0  0  0
 15 16  1  0  0  0
 15 39  1  0  0  0
 15 40  1  0  0  0
 16 17  1  0  0  0
 17 18  2  0  0  0
 17 22  1  0  0  0
 18 19  1  0  0  0
 18 41  1  0  0  0
 19 20  2  0  0  0
 19 42  1  0  0  0
 20 21  1  0  0  0
 20 43  1  0  0  0
 21 22  2  0  0  0
 21 44  1  0  0  0
M  CHG  1   5   1
M  END
> <i_epik_Tot_Q>
1

> <i_epik_Tot_abs_Q>
1

> <i_f3d_flags>
0

> <i_lp_mmshare_version>
64135

> <i_m_source_file_index>
1

> <b_lp_Chiralities_Consistent>
1

> <r_epik_Charging_Adjusted_Penalty>
0.00515852

> <r_epik_Ionization_Penalty>
0.0254138

> <r_epik_Ionization_Penalty_Charging>
0

> <r_epik_Ionization_Penalty_Neutral>
0.0254138

> <r_epik_State_Penalty>
0.00515852

> <r_lp_Energy>
22.4272

> <r_lp_tautomer_probability>
1

> <s_epik_cmdline>
J2VwaWtfcHl0aG9uJywgJy1waCcsICc3LjAnLCAnLXRuJywgJzgnLCAnLW1hJywgJzIwMCcsICctaW1hZScsICc8aW5maWxlLm1hZT4nLCAnLW9tYWUnLCAnPG91dGZpbGUubWFlPic=

> <s_epik_input>
W0NIM11uMWMobltjSF0yKU9bQ0gyXVtDSDJdL1tDSF09W0NIXVxbQ0gyXVtDSDJdW0NIMl1bQ0gyXU9jKGMzYzEyKVtjSF1bY0hdW2NIXVtjSF0z

> <s_lp_Force_Field>
OPLS_2005

> <s_lp_Variant>
MCD00003-1

> <s_m_source_file>
MCD00003.smi

$$$$
MCD00004
                    3D
 Schrodinger Suite 2023-4.
 40 43  0  0  1  0            999 V2000
    2.4000   -2.0406   -2.5369 C   0  0  0  0  0  0
    2.1982   -0.7899   -3.1492 C   0  0  0  0  0  0
    1.2042    0.0887   -2.6754 C   0  0  0  0  0  0
    0.3986   -0.3244   -1.5852 C   0  0  0  0  0  0
    0.6015   -1.5689   -0.9449 C   0  0  0  0  0  0
    1.6082   -2.4247   -1.4390 C   0  0  0  0  0  0
   -0.2197   -1.9983    0.1912 C   0  0  0  0  0  0
   -0.7248   -3.2289    0.5544 C   0  0  0  0  0  0
   -1.4761   -3.1659    1.7489 N   0  0  0  0  0  0
   -1.4242   -1.8905    2.1349 C   0  0  0  0  0  0
   -1.9949   -1.2516    3.2542 C   0  0  0  0  0  0
   -1.7503    0.0923    3.3581 C   0  0  0  0  0  0
   -0.9482    0.7239    2.3718 C   0  0  0  0  0  0
   -0.3732    0.1405    1.3111 N   0  0  0  0  0  0
   -0.6744   -1.2033    1.2228 N   0  0  0  0  0  0
   -0.7433    2.0839    2.5243 N   0  0  0  0  0  0
    0.0690    2.8674    1.5970 C   0  0  0  0  0  0
   -0.7069    3.2799    0.3308 C   0  0  0  0  0  0
    0.1842    3.9656   -0.7212 C   0  0  0  0  0  0
    1.0496    2.9842   -1.5342 C   0  0  0  0  0  0
    0.2987    2.3340   -2.7139 C   0  0  0  0  0  0
    1.0790    1.3046   -3.3185 O   0  0  0  0  0  0
    3.1673   -2.7045   -2.9067 H   0  0  0  0  0  0
    2.8167   -0.4996   -3.9858 H   0  0  0  0  0  0
   -0.3946    0.3075   -1.2238 H   0  0  0  0  0  0
    1.7793   -3.3847   -0.9741 H   0  0  0  0  0  0
   -0.6153   -4.1715    0.0386 H   0  0  0  0  0  0
   -2.5929   -1.7981    3.9757 H   0  0  0  0  0  0
   -2.1672    0.6549    4.1873 H   0  0  0  0  0  0
   -1.1604    2.5427    3.3213 H   0  0  0  0  0  0
    0.4074    3.7622    2.1198 H   0  0  0  0  0  0
    0.9730    2.3143    1.3421 H   0  0  0  0  0  0
   -1.2035    2.4187   -0.1163 H   0  0  0  0  0  0
   -1.5030    3.9656    0.6225 H   0  0  0  0  0  0
   -0.4357    4.5468   -1.4049 H   0  0  0  0  0  0
    0.8279    4.6890   -0.2194 H   0  0  0  0  0  0
    1.9114    3.5182   -1.9354 H   0  0  0  0  0  0
    1.4608    2.2226   -0.8726 H   0  0  0  0  0  0
   -0.6954    1.9843   -2.4391 H   0  0  0  0  0  0
    0.1245    3.0940   -3.4759 H   0  0  0  0  0  0
  1  2  2  0  0  0
  1  6  1  0  0  0
  1 23  1  0  0  0
  2  3  1  0  0  0
  2 24  1  0  0  0
  3  4  2  0  0  0
  3 22  1  0  0  0
  4  5  1  0  0  0
  4 25  1  0  0  0
  5  6  2  0  0  0
  5  7  1  0  0  0
  6 26  1  0  0  0
  7  8  2  0  0  0
  7 15  1  0  0  0
  8  9  1  0  0  0
  8 27  1  0  0  0
  9 10  2  0  0  0
 10 11  1  0  0  0
 10 15  1  0  0  0
 11 12  2  0  0  0
 11 28  1  0  0  0
 12 13  1  0  0  0
 12 29  1  0  0  0
 13 14  2  0  0  0
 13 16  1  0  0  0
 14 15  1  0  0  0
 16 17  1  0  0  0
 16 30  1  0  0  0
 17 18  1  0  0  0
 17 31  1  0  0  0
 17 32  1  0  0  0
 18 19  1  0  0  0
 18 33  1  0  0  0
 18 34  1  0  0  0
 19 20  1  0  0  0
 19 35  1  0  0  0
 19 36  1  0  0  0
 20 21  1  0  0  0
 20 37  1  0  0  0
 20 38  1  0  0  0
 21 22  1  0  0  0
 21 39  1  0  0  0
 21 40  1  0  0  0
M  END
> <i_epik_Tot_Q>
0

> <i_epik_Tot_abs_Q>
0

> <i_f3d_flags>
0

> <i_lp_mmshare_version>
64135

> <i_m_source_file_index>
1

> <b_lp_Chiralities_Consistent>
1

> <r_epik_Charging_Adjusted_Penalty>
0.0109694

> <r_epik_Ionization_Penalty>
0.0109772

> <r_epik_Ionization_Penalty_Charging>
0

> <r_epik_Ionization_Penalty_Neutral>
0.0109772

> <r_epik_State_Penalty>
0.0109694

> <r_lp_Energy>
33.642

> <r_lp_tautomer_probability>
1

> <s_epik_cmdline>
J2VwaWtfcHl0aG9uJywgJy1waCcsICc3LjAnLCAnLXRuJywgJzgnLCAnLW1hJywgJzIwMCcsICctaW1hZScsICc8aW5maWxlLm1hZT4nLCAnLW9tYWUnLCAnPG91dGZpbGUubWFlPic=

> <s_epik_input>
YzEyW2NIXVtjSF1bY0hdYyhbY0hdMSljM240YyhuW2NIXTMpW2NIXVtjSF1jKG40KVtOSF1bQ0gyXVtDSDJdW0NIMl1bQ0gyXVtDSDJdTzI=

> <s_lp_Force_Field>
OPLS_2005

> <s_lp_Variant>
MCD00004-1

> <s_m_source_file>
MCD00004.smi

$$$$
MCD00004
                    3D
 Schrodinger Suite 2023-4.
 41 44  0  0  1  0            999 V2000
    1.7469   -2.0399   -2.9990 C   0  0  0  0  0  0
    2.7683   -1.2507   -2.4378 C   0  0  0  0  0  0
    2.4518   -0.2032   -1.5517 C   0  0  0  0  0  0
    1.0910    0.0700   -1.2833 C   0  0  0  0  0  0
    0.0532   -0.7451   -1.7920 C   0  0  0  0  0  0
    0.4001   -1.7969   -2.6666 C   0  0  0  0  0  0
   -1.3540   -0.5254   -1.4338 C   0  0  0  0  0  0
   -2.5344   -0.7510   -2.1338 C   0  0  0  0  0  0
   -3.6505   -0.3877   -1.3618 N   0  3  0  0  0  0
   -3.1629    0.0463   -0.1986 C   0  0  0  0  0  0
   -3.8754    0.5349    0.9157 C   0  0  0  0  0  0
   -3.0951    0.9421    1.9692 C   0  0  0  0  0  0
   -1.6810    0.8188    1.8695 C   0  0  0  0  0  0
   -0.9961    0.2995    0.8414 N   0  0  0  0  0  0
   -1.8113   -0.0390   -0.2157 N   0  0  0  0  0  0
   -0.9287    1.2910    2.9324 N   0  0  0  0  0  0
    0.5103    1.5267    2.8012 C   0  0  0  0  0  0
    1.3380    0.2824    3.1669 C   0  0  0  0  0  0
    2.8375    0.3809    2.8157 C   0  0  0  0  0  0
    3.1942   -0.0832    1.3871 C   0  0  0  0  0  0
    3.2904    1.0406    0.3333 C   0  0  0  0  0  0
    3.4904    0.5002   -0.9762 O   0  0  0  0  0  0
    1.9987   -2.8479   -3.6700 H   0  0  0  0  0  0
    3.8009   -1.4639   -2.6721 H   0  0  0  0  0  0
    0.8345    0.9161   -0.6710 H   0  0  0  0  0  0
   -0.3683   -2.4303   -3.0850 H   0  0  0  0  0  0
   -2.6871   -1.1374   -3.1311 H   0  0  0  0  0  0
   -4.9584    0.6019    0.9227 H   0  0  0  0  0  0
   -3.5596    1.3618    2.8559 H   0  0  0  0  0  0
   -1.4218    1.7504    3.6844 H   0  0  0  0  0  0
    0.7420    1.8687    1.7934 H   0  0  0  0  0  0
    0.7838    2.3499    3.4615 H   0  0  0  0  0  0
    1.2407    0.1226    4.2414 H   0  0  0  0  0  0
    0.9146   -0.6101    2.7050 H   0  0  0  0  0  0
    3.2265    1.3797    3.0167 H   0  0  0  0  0  0
    3.3663   -0.2788    3.5046 H   0  0  0  0  0  0
    4.1625   -0.5841    1.4168 H   0  0  0  0  0  0
    2.4886   -0.8516    1.0718 H   0  0  0  0  0  0
    2.4444    1.7224    0.3716 H   0  0  0  0  0  0
    4.1579    1.6598    0.5625 H   0  0  0  0  0  0
   -4.6399   -0.4194   -1.5728 H   0  0  0  0  0  0
  1  2  2  0  0  0
  1  6  1  0  0  0
  1 23  1  0  0  0
  2  3  1  0  0  0
  2 24  1  0  0  0
  3  4  2  0  0  0
  3 22  1  0  0  0
  4  5  1  0  0  0
  4 25  1  0  0  0
  5  6  2  0  0  0
  5  7  1  0  0  0
  6 26  1  0  0  0
  7  8  2  0  0  0
  7 15  1  0  0  0
  8  9  1  0  0  0
  8 27  1  0  0  0
  9 10  2  0  0  0
  9 41  1  0  0  0
 10 11  1  0  0  0
 10 15  1  0  0  0
 11 12  2  0  0  0
 11 28  1  0  0  0
 12 13  1  0  0  0
 12 29  1  0  0  0
 13 14  2  0  0  0
 13 16  1  0  0  0
 14 15  1  0  0  0
 16 17  1  0  0  0
 16 30  1  0  0  0
 17 18  1  0  0  0
 17 31  1  0  0  0
 17 32  1  0  0  0
 18 19  1  0  0  0
 18 33  1  0  0  0
 18 34  1  0  0  0
 19 20  1  0  0  0
 19 35  1  0  0  0
 19 36  1  0  0  0
 20 21  1  0  0  0
 20 37  1  0  0  0
 20 38  1  0  0  0
 21 22  1  0  0  0
 21 39  1  0  0  0
 21 40  1  0  0  0
M  CHG  1   9   1
M  END
> <i_epik_Tot_Q>
1

> <i_epik_Tot_abs_Q>
1

> <i_f3d_flags>
0

> <i_lp_mmshare_version>
64135

> <i_m_source_file_index>
1

> <b_lp_Chiralities_Consistent>
1

> <r_epik_Charging_Adjusted_Penalty>
4.73806

> <r_epik_Ionization_Penalty>
2.36903

> <r_epik_Ionization_Penalty_Charging>
2.36903

> <r_epik_Ionization_Penalty_Neutral>
1.06706e-06

> <r_epik_State_Penalty>
2.36903

> <r_lp_Energy>
47.3243

> <r_lp_tautomer_probability>
1

> <s_epik_cmdline>
J2VwaWtfcHl0aG9uJywgJy1waCcsICc3LjAnLCAnLXRuJywgJzgnLCAnLW1hJywgJzIwMCcsICctaW1hZScsICc8aW5maWxlLm1hZT4nLCAnLW9tYWUnLCAnPG91dGZpbGUubWFlPic=

> <s_epik_input>
YzEyW2NIXVtjSF1bY0hdYyhbY0hdMSljM240YyhuW2NIXTMpW2NIXVtjSF1jKG40KVtOSF1bQ0gyXVtDSDJdW0NIMl1bQ0gyXVtDSDJdTzI=

> <s_lp_Force_Field>
OPLS_2005

> <s_lp_Variant>
MCD00004-2

> <s_m_source_file>
MCD00004.smi

$$$$
MCD00005
                    3D
 Schrodinger Suite 2023-4.
 39 41  0  0  1  0            999 V2000
    0.0740    0.0095    0.0749 N   0  0  0  0  0  0
    1.4674    0.0094    0.0181 C   0  0  0  0  0  0
    2.1655   -1.2127    0.0352 C   0  0  0  0  0  0
    3.5576   -1.2287   -0.1938 C   0  0  0  0  0  0
    4.2814   -0.0206   -0.2218 C   0  0  0  0  0  0
    3.5902    1.2027   -0.2131 C   0  0  0  0  0  0
    2.1780    1.2088   -0.2089 C   0  0  0  0  0  0
    1.5153    2.3054   -0.7044 O   0  0  0  0  0  0
    1.7380    2.5335   -2.0516 C   0  0  0  0  0  0
    1.9150    1.4478   -2.9473 C   0  0  0  0  0  0
    2.3809    1.6449   -4.2575 C   0  0  0  0  0  0
    2.5317    2.9636   -4.7324 C   0  0  0  0  0  0
    2.2691    4.0616   -3.8861 C   0  0  0  0  0  0
    2.4862    5.8263   -4.5743 Br  0  0  0  0  0  0
    1.8925    3.8497   -2.5387 C   0  0  0  0  0  0
    1.7075    4.9113   -1.6977 O   0  5  0  0  0  0
    2.7754    0.4482   -5.1184 C   0  0  0  0  0  0
    3.6177   -0.6192   -4.3698 C   0  0  0  0  0  0
    2.7830   -1.6949   -3.8337 N   0  0  0  0  0  0
    3.0730   -2.6196   -2.8960 C   0  0  0  0  0  0
    2.2519   -3.4916   -2.6184 O   0  0  0  0  0  0
    4.4160   -2.6057   -2.1345 C   0  0  0  0  0  0
    4.2423   -2.5213   -0.5946 C   0  0  0  0  0  0
   -0.4381    0.8524   -0.1451 H   0  0  0  0  0  0
   -0.4405   -0.8567    0.0113 H   0  0  0  0  0  0
    1.6156   -2.1417    0.0797 H   0  0  0  0  0  0
    5.3500   -0.0270   -0.3785 H   0  0  0  0  0  0
    4.1334    2.1210   -0.3833 H   0  0  0  0  0  0
    1.7839    0.4350   -2.6023 H   0  0  0  0  0  0
    2.8683    3.1409   -5.7431 H   0  0  0  0  0  0
    1.8804    0.0056   -5.5576 H   0  0  0  0  0  0
    3.3656    0.8224   -5.9558 H   0  0  0  0  0  0
    4.3073   -1.0855   -5.0742 H   0  0  0  0  0  0
    4.2283   -0.1424   -3.6024 H   0  0  0  0  0  0
    1.8679   -1.7716   -4.2539 H   0  0  0  0  0  0
    4.9374   -3.5314   -2.3790 H   0  0  0  0  0  0
    5.0693   -1.8051   -2.4756 H   0  0  0  0  0  0
    3.6710   -3.3738   -0.2241 H   0  0  0  0  0  0
    5.2169   -2.5720   -0.1080 H   0  0  0  0  0  0
  1  2  1  0  0  0
  1 24  1  0  0  0
  1 25  1  0  0  0
  2  3  2  0  0  0
  2  7  1  0  0  0
  3  4  1  0  0  0
  3 26  1  0  0  0
  4  5  2  0  0  0
  4 23  1  0  0  0
  5  6  1  0  0  0
  5 27  1  0  0  0
  6  7  2  0  0  0
  6 28  1  0  0  0
  7  8  1  0  0  0
  8  9  1  0  0  0
  9 10  2  0  0  0
  9 15  1  0  0  0
 10 11  1  0  0  0
 10 29  1  0  0  0
 11 12  2  0  0  0
 11 17  1  0  0  0
 12 13  1  0  0  0
 12 30  1  0  0  0
 13 14  1  0  0  0
 13 15  2  0  0  0
 15 16  1  0  0  0
 17 18  1  0  0  0
 17 31  1  0  0  0
 17 32  1  0  0  0
 18 19  1  0  0  0
 18 33  1  0  0  0
 18 34  1  0  0  0
 19 20  1  0  0  0
 19 35  1  0  0  0
 20 21  2  0  0  0
 20 22  1  0  0  0
 22 23  1  0  0  0
 22 36  1  0  0  0
 22 37  1  0  0  0
 23 38  1  0  0  0
 23 39  1  0  0  0
M  CHG  1  16  -1
M  END
> <i_epik_Tot_Q>
-1

> <i_epik_Tot_abs_Q>
1

> <i_f3d_flags>
0

> <i_lp_mmshare_version>
64135

> <i_m_source_file_index>
1

> <b_lp_Chiralities_Consistent>
1

> <r_epik_Charging_Adjusted_Penalty>
0.600788

> <r_epik_Ionization_Penalty>
0.467413

> <r_epik_Ionization_Penalty_Charging>
0.467402

> <r_epik_Ionization_Penalty_Neutral>
1.08683e-05

> <r_epik_State_Penalty>
0.133386

> <r_lp_Energy>
36.6582

> <s_epik_cmdline>
J2VwaWtfcHl0aG9uJywgJy1waCcsICc3LjAnLCAnLXRuJywgJzgnLCAnLW1hJywgJzIwMCcsICctaW1hZScsICc8aW5maWxlLm1hZT4nLCAnLW9tYWUnLCAnPG91dGZpbGUubWFlPic=

> <s_epik_input>
YzEyW2NIXWMoW05IMl0pYyhbY0hdW2NIXTEpT2MzW2NIXWMoW2NIXWMoQnIpYzNbT0hdKVtDSDJdW0NIMl1bTkhdQyg9TylbQ0gyXVtDSDJdMg==

> <s_lp_Force_Field>
OPLS_2005

> <s_lp_Variant>
MCD00005-1

> <s_m_source_file>
MCD00005.smi

$$$$
MCD00005
                    3D
 Schrodinger Suite 2023-4.
 40 42  0  0  1  0            999 V2000
    0.0314   -0.0503   -0.0023 N   0  0  0  0  0  0
    1.4254   -0.0206   -0.0415 C   0  0  0  0  0  0
    2.1479   -1.2297   -0.0263 C   0  0  0  0  0  0
    3.5450   -1.2127   -0.2150 C   0  0  0  0  0  0
    4.2424    0.0118   -0.2037 C   0  0  0  0  0  0
    3.5256    1.2194   -0.2207 C   0  0  0  0  0  0
    2.1149    1.1951   -0.2558 C   0  0  0  0  0  0
    1.4493    2.2758   -0.7829 O   0  0  0  0  0  0
    1.6821    2.4144   -2.1371 C   0  0  0  0  0  0
    1.5411    1.2960   -2.9918 C   0  0  0  0  0  0
    2.0567    1.3052   -4.2986 C   0  0  0  0  0  0
    2.5854    2.5062   -4.8143 C   0  0  0  0  0  0
    2.6389    3.6629   -4.0073 C   0  0  0  0  0  0
    3.3585    5.2703   -4.7341 Br  0  0  0  0  0  0
    2.2076    3.6138   -2.6615 C   0  0  0  0  0  0
    2.3367    4.7072   -1.8536 O   0  0  0  0  0  0
    2.0679    0.0146   -5.1111 C   0  0  0  0  0  0
    2.6335   -1.2145   -4.3516 C   0  0  0  0  0  0
    4.0259   -1.0204   -3.9481 N   0  0  0  0  0  0
    4.7479   -1.6879   -3.0246 C   0  0  0  0  0  0
    5.9389   -1.4254   -2.8697 O   0  0  0  0  0  0
    4.1119   -2.7726   -2.1267 C   0  0  0  0  0  0
    4.2717   -2.4844   -0.6096 C   0  0  0  0  0  0
   -0.4991    0.8074    0.0551 H   0  0  0  0  0  0
   -0.4612   -0.9017    0.2268 H   0  0  0  0  0  0
    1.6190   -2.1717   -0.0022 H   0  0  0  0  0  0
    5.3155    0.0309   -0.3271 H   0  0  0  0  0  0
    4.0567    2.1473   -0.3754 H   0  0  0  0  0  0
    1.1212    0.3804   -2.6086 H   0  0  0  0  0  0
    2.9660    2.5423   -5.8247 H   0  0  0  0  0  0
    2.0264    4.5511   -0.9747 H   0  0  0  0  0  0
    1.0451   -0.1935   -5.4267 H   0  0  0  0  0  0
    2.6422    0.1704   -6.0253 H   0  0  0  0  0  0
    2.0070   -1.4269   -3.4868 H   0  0  0  0  0  0
    2.5825   -2.0945   -4.9932 H   0  0  0  0  0  0
    4.5241   -0.3086   -4.4629 H   0  0  0  0  0  0
    3.0615   -2.9344   -2.3592 H   0  0  0  0  0  0
    4.6083   -3.7152   -2.3585 H   0  0  0  0  0  0
    3.8714   -3.3174   -0.0307 H   0  0  0  0  0  0
    5.3261   -2.4057   -0.3410 H   0  0  0  0  0  0
  1  2  1  0  0  0
  1 24  1  0  0  0
  1 25  1  0  0  0
  2  3  2  0  0  0
  2  7  1  0  0  0
  3  4  1  0  0  0
  3 26  1  0  0  0
  4  5  2  0  0  0
  4 23  1  0  0  0
  5  6  1  0  0  0
  5 27  1  0  0  0
  6  7  2  0  0  0
  6 28  1  0  0  0
  7  8  1  0  0  0
  8  9  1  0  0  0
  9 10  2  0  0  0
  9 15  1  0  0  0
 10 11  1  0  0  0
 10 29  1  0  0  0
 11 12  2  0  0  0
 11 17  1  0  0  0
 12 13  1  0  0  0
 12 30  1  0  0  0
 13 14  1  0  0  0
 13 15  2  0  0  0
 15 16  1  0  0  0
 16 31  1  0  0  0
 17 18  1  0  0  0
 17 32  1  0  0  0
 17 33  1  0  0  0
 18 19  1  0  0  0
 18 34  1  0  0  0
 18 35  1  0  0  0
 19 20  1  0  0  0
 19 36  1  0  0  0
 20 21  2  0  0  0
 20 22  1  0  0  0
 22 23  1  0  0  0
 22 37  1  0  0  0
 22 38  1  0  0  0
 23 39  1  0  0  0
 23 40  1  0  0  0
M  END
> <i_epik_Tot_Q>
0

> <i_epik_Tot_abs_Q>
0

> <i_f3d_flags>
0

> <i_lp_mmshare_version>
64135

> <i_m_source_file_index>
1

> <b_lp_Chiralities_Consistent>
1

> <r_epik_Charging_Adjusted_Penalty>
0.950251

> <r_epik_Ionization_Penalty>
0.364428

> <r_epik_Ionization_Penalty_Charging>
0

> <r_epik_Ionization_Penalty_Neutral>
0.364428

> <r_epik_State_Penalty>
0.950251

> <r_lp_Energy>
34.5035

> <r_lp_tautomer_probability>
1

> <s_epik_cmdline>
J2VwaWtfcHl0aG9uJywgJy1waCcsICc3LjAnLCAnLXRuJywgJzgnLCAnLW1hJywgJzIwMCcsICctaW1hZScsICc8aW5maWxlLm1hZT4nLCAnLW9tYWUnLCAnPG91dGZpbGUubWFlPic=

> <s_epik_input>
YzEyW2NIXWMoW05IMl0pYyhbY0hdW2NIXTEpT2MzW2NIXWMoW2NIXWMoQnIpYzNbT0hdKVtDSDJdW0NIMl1bTkhdQyg9TylbQ0gyXVtDSDJdMg==

> <s_lp_Force_Field>
OPLS_2005

> <s_lp_Variant>
MCD00005-2

> <s_m_source_file>
MCD00005.smi

$$$$
MCD00006
                    3D
 Schrodinger Suite 2023-4.
 37 39  0  0  1  0            999 V2000
   -0.0323   -2.5851    2.8186 O   0  0  0  0  0  0
   -0.6441   -1.5258    2.6950 C   0  0  0  0  0  0
   -0.3177   -0.3719    3.6690 C   0  0  0  0  0  0
    1.1821    0.0290    3.6665 C   0  0  0  0  0  0
    1.6054    0.5586    2.3094 C   0  0  0  0  0  0
    2.1692   -0.3207    1.3625 C   0  0  0  0  0  0
    2.2086    0.0485    0.0076 C   0  0  0  0  0  0
    1.6799    1.2943   -0.3914 C   0  0  0  0  0  0
    1.3236    2.2541    0.5811 C   0  0  0  0  0  0
    0.6726    3.9663    0.0608 Br  0  0  0  0  0  0
    1.2812    1.8794    1.9372 C   0  0  0  0  0  0
    1.2434    1.4430   -1.6848 O   0  0  0  0  0  0
    0.1370    0.6593   -1.9477 C   0  0  0  0  0  0
   -0.9719    0.7046   -1.0708 C   0  0  0  0  0  0
   -1.9719   -0.2809   -1.1062 C   0  0  0  0  0  0
   -1.9490   -1.2387   -2.1402 C   0  0  0  0  0  0
   -0.9042   -1.2357   -3.0892 C   0  0  0  0  0  0
   -0.9109   -2.5503   -4.4700 Br  0  0  0  0  0  0
    0.1542   -0.3018   -2.9820 C   0  0  0  0  0  0
    1.2144   -0.3539   -3.8430 O   0  5  0  0  0  0
   -3.0265   -0.3180   -0.0061 C   0  0  0  0  0  0
   -2.4467   -0.2577    1.4315 C   0  0  0  0  0  0
   -1.5624   -1.3874    1.7168 N   0  0  0  0  0  0
   -0.9319    0.5066    3.4835 H   0  0  0  0  0  0
   -0.5888   -0.7090    4.6699 H   0  0  0  0  0  0
    1.3609    0.7974    4.4193 H   0  0  0  0  0  0
    1.8083   -0.8205    3.9430 H   0  0  0  0  0  0
    2.4370   -1.3288    1.6439 H   0  0  0  0  0  0
    2.4863   -0.6848   -0.7357 H   0  0  0  0  0  0
    0.8748    2.5650    2.6660 H   0  0  0  0  0  0
   -1.0046    1.4459   -0.2891 H   0  0  0  0  0  0
   -2.7217   -1.9909   -2.2008 H   0  0  0  0  0  0
   -3.7036    0.5227   -0.1601 H   0  0  0  0  0  0
   -3.6302   -1.2196   -0.1166 H   0  0  0  0  0  0
   -1.9217    0.6861    1.5705 H   0  0  0  0  0  0
   -3.2625   -0.2687    2.1548 H   0  0  0  0  0  0
   -1.6802   -2.1852    1.1088 H   0  0  0  0  0  0
  1  2  2  0  0  0
  2  3  1  0  0  0
  2 23  1  0  0  0
  3  4  1  0  0  0
  3 24  1  0  0  0
  3 25  1  0  0  0
  4  5  1  0  0  0
  4 26  1  0  0  0
  4 27  1  0  0  0
  5  6  2  0  0  0
  5 11  1  0  0  0
  6  7  1  0  0  0
  6 28  1  0  0  0
  7  8  2  0  0  0
  7 29  1  0  0  0
  8  9  1  0  0  0
  8 12  1  0  0  0
  9 10  1  0  0  0
  9 11  2  0  0  0
 11 30  1  0  0  0
 12 13  1  0  0  0
 13 14  1  0  0  0
 13 19  2  0  0  0
 14 15  2  0  0  0
 14 31  1  0  0  0
 15 16  1  0  0  0
 15 21  1  0  0  0
 16 17  2  0  0  0
 16 32  1  0  0  0
 17 18  1  0  0  0
 17 19  1  0  0  0
 19 20  1  0  0  0
 21 22  1  0  0  0
 21 33  1  0  0  0
 21 34  1  0  0  0
 22 23  1  0  0  0
 22 35  1  0  0  0
 22 36  1  0  0  0
 23 37  1  0  0  0
M  CHG  1  20  -1
M  END
> <i_epik_Tot_Q>
-1

> <i_epik_Tot_abs_Q>
1

> <i_f3d_flags>
0

> <i_lp_mmshare_version>
64135

> <i_m_source_file_index>
1

> <b_lp_Chiralities_Consistent>
1

> <r_epik_Charging_Adjusted_Penalty>
0.745972

> <r_epik_Ionization_Penalty>
0.372986

> <r_epik_Ionization_Penalty_Charging>
0.372986

> <r_epik_Ionization_Penalty_Neutral>
2.22404e-08

> <r_epik_State_Penalty>
0.372986

> <r_lp_Energy>
33.2303

> <r_lp_tautomer_probability>
1

> <s_epik_cmdline>
J2VwaWtfcHl0aG9uJywgJy1waCcsICc3LjAnLCAnLXRuJywgJzgnLCAnLW1hJywgJzIwMCcsICctaW1hZScsICc8aW5maWxlLm1hZT4nLCAnLW9tYWUnLCAnPG91dGZpbGUubWFlPic=

> <s_epik_input>
W0NIMl0xW0NIMl1DKD1PKVtOSF1bQ0gyXVtDSDJdYyhbY0hdYyhCciljMltPSF0pW2NIXWMyT2MoW2NIXVtjSF1jMTMpYyhCcilbY0hdMw==

> <s_lp_Force_Field>
OPLS_2005

> <s_lp_Variant>
MCD00006-1

> <s_m_source_file>
MCD00006.smi

$$$$
MCD00006
                    3D
 Schrodinger Suite 2023-4.
 38 40  0  0  1  0            999 V2000
   -3.6111    0.8557   -4.9720 O   0  0  0  0  0  0
   -4.0708    1.3578   -3.9485 C   0  0  0  0  0  0
   -4.4843    2.8462   -3.9813 C   0  0  0  0  0  0
   -3.3341    3.7926   -4.4187 C   0  0  0  0  0  0
   -2.1833    3.7479   -3.4315 C   0  0  0  0  0  0
   -1.1074    2.8649   -3.6554 C   0  0  0  0  0  0
   -0.2493    2.5309   -2.5947 C   0  0  0  0  0  0
   -0.4758    3.0816   -1.3155 C   0  0  0  0  0  0
   -1.4090    4.1287   -1.1524 C   0  0  0  0  0  0
   -1.6787    4.9278    0.5549 Br  0  0  0  0  0  0
   -2.2708    4.4566   -2.2158 C   0  0  0  0  0  0
   -0.0168    2.4034   -0.2131 O   0  0  0  0  0  0
   -0.6858    1.2101   -0.0256 C   0  0  0  0  0  0
   -2.1002    1.1866   -0.0476 C   0  0  0  0  0  0
   -2.8091   -0.0200   -0.1710 C   0  0  0  0  0  0
   -2.0990   -1.2367   -0.1144 C   0  0  0  0  0  0
   -0.6932   -1.2334    0.0119 C   0  0  0  0  0  0
    0.2370   -2.8946    0.0847 Br  0  0  0  0  0  0
    0.0176   -0.0112    0.0341 C   0  0  0  0  0  0
    1.3827   -0.0059    0.0691 O   0  0  0  0  0  0
   -4.3158    0.0152   -0.4043 C   0  0  0  0  0  0
   -4.7635    0.9792   -1.5342 C   0  0  0  0  0  0
   -4.1858    0.6162   -2.8278 N   0  0  0  0  0  0
   -5.3042    2.9381   -4.6940 H   0  0  0  0  0  0
   -4.8908    3.1805   -3.0292 H   0  0  0  0  0  0
   -2.9765    3.5294   -5.4154 H   0  0  0  0  0  0
   -3.7030    4.8163   -4.4885 H   0  0  0  0  0  0
   -1.0236    2.3332   -4.5921 H   0  0  0  0  0  0
    0.4680    1.7336   -2.7241 H   0  0  0  0  0  0
   -3.0784    5.1546   -2.0507 H   0  0  0  0  0  0
   -2.6508    2.1126   -0.0724 H   0  0  0  0  0  0
   -2.6260   -2.1769   -0.1845 H   0  0  0  0  0  0
    1.7461    0.8665    0.0720 H   0  0  0  0  0  0
   -4.6694   -0.9923   -0.6275 H   0  0  0  0  0  0
   -4.7953    0.3057    0.5308 H   0  0  0  0  0  0
   -5.8499    0.9571   -1.6250 H   0  0  0  0  0  0
   -4.4969    2.0001   -1.2656 H   0  0  0  0  0  0
   -3.8611   -0.3376   -2.8981 H   0  0  0  0  0  0
  1  2  2  0  0  0
  2  3  1  0  0  0
  2 23  1  0  0  0
  3  4  1  0  0  0
  3 24  1  0  0  0
  3 25  1  0  0  0
  4  5  1  0  0  0
  4 26  1  0  0  0
  4 27  1  0  0  0
  5  6  2  0  0  0
  5 11  1  0  0  0
  6  7  1  0  0  0
  6 28  1  0  0  0
  7  8  2  0  0  0
  7 29  1  0  0  0
  8  9  1  0  0  0
  8 12  1  0  0  0
  9 10  1  0  0  0
  9 11  2  0  0  0
 11 30  1  0  0  0
 12 13  1  0  0  0
 13 14  1  0  0  0
 13 19  2  0  0  0
 14 15  2  0  0  0
 14 31  1  0  0  0
 15 16  1  0  0  0
 15 21  1  0  0  0
 16 17  2  0  0  0
 16 32  1  0  0  0
 17 18  1  0  0  0
 17 19  1  0  0  0
 19 20  1  0  0  0
 20 33  1  0  0  0
 21 22  1  0  0  0
 21 34  1  0  0  0
 21 35  1  0  0  0
 22 23  1  0  0  0
 22 36  1  0  0  0
 22 37  1  0  0  0
 23 38  1  0  0  0
M  END
> <i_epik_Tot_Q>
0

> <i_epik_Tot_abs_Q>
0

> <i_f3d_flags>
0

> <i_lp_mmshare_version>
64135

> <i_m_source_file_index>
1

> <b_lp_Chiralities_Consistent>
1

> <r_epik_Charging_Adjusted_Penalty>
0.450936

> <r_epik_Ionization_Penalty>
0.450936

> <r_epik_Ionization_Penalty_Charging>
0

> <r_epik_Ionization_Penalty_Neutral>
0.450936

> <r_epik_State_Penalty>
0.450936

> <r_lp_Energy>
32.529

> <r_lp_tautomer_probability>
1

> <s_epik_cmdline>
J2VwaWtfcHl0aG9uJywgJy1waCcsICc3LjAnLCAnLXRuJywgJzgnLCAnLW1hJywgJzIwMCcsICctaW1hZScsICc8aW5maWxlLm1hZT4nLCAnLW9tYWUnLCAnPG91dGZpbGUubWFlPic=

> <s_epik_input>
W0NIMl0xW0NIMl1DKD1PKVtOSF1bQ0gyXVtDSDJdYyhbY0hdYyhCciljMltPSF0pW2NIXWMyT2MoW2NIXVtjSF1jMTMpYyhCcilbY0hdMw==

> <s_lp_Force_Field>
OPLS_2005

> <s_lp_Variant>
MCD00006-2

> <s_m_source_file>
MCD00006.smi

$$$$
MCD00007
                    3D
 Schrodinger Suite 2023-4.
 37 39  0  0  1  0            999 V2000
   -0.0459   -2.6067    2.8165 O   0  0  0  0  0  0
   -0.6516   -1.5438    2.6954 C   0  0  0  0  0  0
   -0.3211   -0.3948    3.6740 C   0  0  0  0  0  0
    1.1808   -0.0023    3.6752 C   0  0  0  0  0  0
    1.6093    0.5299    2.3210 C   0  0  0  0  0  0
    2.1678   -0.3496    1.3713 C   0  0  0  0  0  0
    2.2103    0.0242    0.0179 C   0  0  0  0  0  0
    1.6908    1.2752   -0.3766 C   0  0  0  0  0  0
    1.3417    2.2344    0.5992 C   0  0  0  0  0  0
    0.6428    4.1257    0.0389 I   0  0  0  0  0  0
    1.2957    1.8547    1.9539 C   0  0  0  0  0  0
    1.2565    1.4313   -1.6700 O   0  0  0  0  0  0
    0.1457    0.6554   -1.9381 C   0  0  0  0  0  0
   -0.9622    0.7003   -1.0599 C   0  0  0  0  0  0
   -1.9698   -0.2769   -1.1036 C   0  0  0  0  0  0
   -1.9543   -1.2253   -2.1464 C   0  0  0  0  0  0
   -0.9099   -1.2218   -3.0958 C   0  0  0  0  0  0
   -0.9268   -2.5248   -4.4877 Br  0  0  0  0  0  0
    0.1552   -0.2964   -2.9812 C   0  0  0  0  0  0
    1.2135   -0.3477   -3.8445 O   0  5  0  0  0  0
   -3.0253   -0.3152   -0.0041 C   0  0  0  0  0  0
   -2.4470   -0.2629    1.4347 C   0  0  0  0  0  0
   -1.5677   -1.3971    1.7162 N   0  0  0  0  0  0
   -0.9300    0.4880    3.4908 H   0  0  0  0  0  0
   -0.5954   -0.7337    4.6733 H   0  0  0  0  0  0
    1.3623    0.7626    4.4307 H   0  0  0  0  0  0
    1.8020   -0.8559    3.9501 H   0  0  0  0  0  0
    2.4285   -1.3605    1.6493 H   0  0  0  0  0  0
    2.4818   -0.7089   -0.7277 H   0  0  0  0  0  0
    0.8955    2.5408    2.6858 H   0  0  0  0  0  0
   -0.9887    1.4344   -0.2716 H   0  0  0  0  0  0
   -2.7326   -1.9707   -2.2139 H   0  0  0  0  0  0
   -3.6993    0.5285   -0.1549 H   0  0  0  0  0  0
   -3.6316   -1.2147   -0.1184 H   0  0  0  0  0  0
   -1.9194    0.6787    1.5796 H   0  0  0  0  0  0
   -3.2636   -0.2747    2.1573 H   0  0  0  0  0  0
   -1.6886   -2.1922    1.1053 H   0  0  0  0  0  0
  1  2  2  0  0  0
  2  3  1  0  0  0
  2 23  1  0  0  0
  3  4  1  0  0  0
  3 24  1  0  0  0
  3 25  1  0  0  0
  4  5  1  0  0  0
  4 26  1  0  0  0
  4 27  1  0  0  0
  5  6  2  0  0  0
  5 11  1  0  0  0
  6  7  1  0  0  0
  6 28  1  0  0  0
  7  8  2  0  0  0
  7 29  1  0  0  0
  8  9  1  0  0  0
  8 12  1  0  0  0
  9 10  1  0  0  0
  9 11  2  0  0  0
 11 30  1  0  0  0
 12 13  1  0  0  0
 13 14  1  0  0  0
 13 19  2  0  0  0
 14 15  2  0  0  0
 14 31  1  0  0  0
 15 16  1  0  0  0
 15 21  1  0  0  0
 16 17  2  0  0  0
 16 32  1  0  0  0
 17 18  1  0  0  0
 17 19  1  0  0  0
 19 20  1  0  0  0
 21 22  1  0  0  0
 21 33  1  0  0  0
 21 34  1  0  0  0
 22 23  1  0  0  0
 22 35  1  0  0  0
 22 36  1  0  0  0
 23 37  1  0  0  0
M  CHG  1  20  -1
M  END
> <i_epik_Tot_Q>
-1

> <i_epik_Tot_abs_Q>
1

> <i_f3d_flags>
0

> <i_lp_mmshare_version>
64135

> <i_m_source_file_index>
1

> <b_lp_Chiralities_Consistent>
1

> <r_epik_Charging_Adjusted_Penalty>
0.77309

> <r_epik_Ionization_Penalty>
0.386545

> <r_epik_Ionization_Penalty_Charging>
0.386545

> <r_epik_Ionization_Penalty_Neutral>
2.22404e-08

> <r_epik_State_Penalty>
0.386545

> <r_lp_Energy>
32.9538

> <r_lp_tautomer_probability>
1

> <s_epik_cmdline>
J2VwaWtfcHl0aG9uJywgJy1waCcsICc3LjAnLCAnLXRuJywgJzgnLCAnLW1hJywgJzIwMCcsICctaW1hZScsICc8aW5maWxlLm1hZT4nLCAnLW9tYWUnLCAnPG91dGZpbGUubWFlPic=

> <s_epik_input>
W0NIMl0xW0NIMl1DKD1PKVtOSF1bQ0gyXVtDSDJdYyhbY0hdYyhCciljMltPSF0pW2NIXWMyT2MoW2NIXVtjSF1jMTMpYyhJKVtjSF0z

> <s_lp_Force_Field>
OPLS_2005

> <s_lp_Variant>
MCD00007-1

> <s_m_source_file>
MCD00007.smi

$$$$
MCD00007
                    3D
 Schrodinger Suite 2023-4.
 38 40  0  0  1  0            999 V2000
   -3.6762    0.9242   -4.9335 O   0  0  0  0  0  0
   -4.1237    1.4138   -3.8984 C   0  0  0  0  0  0
   -4.5355    2.9029   -3.9079 C   0  0  0  0  0  0
   -3.3900    3.8533   -4.3488 C   0  0  0  0  0  0
   -2.2265    3.7952   -3.3772 C   0  0  0  0  0  0
   -1.1539    2.9146   -3.6256 C   0  0  0  0  0  0
   -0.2829    2.5670   -2.5797 C   0  0  0  0  0  0
   -0.4935    3.1016   -1.2910 C   0  0  0  0  0  0
   -1.4233    4.1479   -1.1033 C   0  0  0  0  0  0
   -1.6967    5.0088    0.7845 I   0  0  0  0  0  0
   -2.2981    4.4888   -2.1518 C   0  0  0  0  0  0
   -0.0223    2.4088   -0.2030 O   0  0  0  0  0  0
   -0.6904    1.2137   -0.0228 C   0  0  0  0  0  0
   -2.1048    1.1919   -0.0275 C   0  0  0  0  0  0
   -2.8168   -0.0123   -0.1557 C   0  0  0  0  0  0
   -2.1077   -1.2304   -0.1240 C   0  0  0  0  0  0
   -0.7003   -1.2299   -0.0167 C   0  0  0  0  0  0
    0.2292   -2.8925    0.0221 Br  0  0  0  0  0  0
    0.0122   -0.0087    0.0124 C   0  0  0  0  0  0
    1.3776   -0.0050    0.0304 O   0  0  0  0  0  0
   -4.3263    0.0274   -0.3673 C   0  0  0  0  0  0
   -4.7882    1.0045   -1.4805 C   0  0  0  0  0  0
   -4.2267    0.6580   -2.7858 N   0  0  0  0  0  0
   -5.3639    3.0039   -4.6097 H   0  0  0  0  0  0
   -4.9297    3.2261   -2.9467 H   0  0  0  0  0  0
   -3.0456    3.6010   -5.3529 H   0  0  0  0  0  0
   -3.7585    4.8783   -4.4014 H   0  0  0  0  0  0
   -1.0818    2.3945   -4.5697 H   0  0  0  0  0  0
    0.4327    1.7715   -2.7280 H   0  0  0  0  0  0
   -3.1032    5.1854   -1.9687 H   0  0  0  0  0  0
   -2.6544    2.1188   -0.0343 H   0  0  0  0  0  0
   -2.6374   -2.1690   -0.1978 H   0  0  0  0  0  0
    1.7409    0.8674    0.0337 H   0  0  0  0  0  0
   -4.6835   -0.9776   -0.5959 H   0  0  0  0  0  0
   -4.7925    0.3077    0.5779 H   0  0  0  0  0  0
   -5.8756    0.9825   -1.5575 H   0  0  0  0  0  0
   -4.5186    2.0223   -1.2035 H   0  0  0  0  0  0
   -3.9025   -0.2946   -2.8715 H   0  0  0  0  0  0
  1  2  2  0  0  0
  2  3  1  0  0  0
  2 23  1  0  0  0
  3  4  1  0  0  0
  3 24  1  0  0  0
  3 25  1  0  0  0
  4  5  1  0  0  0
  4 26  1  0  0  0
  4 27  1  0  0  0
  5  6  2  0  0  0
  5 11  1  0  0  0
  6  7  1  0  0  0
  6 28  1  0  0  0
  7  8  2  0  0  0
  7 29  1  0  0  0
  8  9  1  0  0  0
  8 12  1  0  0  0
  9 10  1  0  0  0
  9 11  2  0  0  0
 11 30  1  0  0  0
 12 13  1  0  0  0
 13 14  1  0  0  0
 13 19  2  0  0  0
 14 15  2  0  0  0
 14 31  1  0  0  0
 15 16  1  0  0  0
 15 21  1  0  0  0
 16 17  2  0  0  0
 16 32  1  0  0  0
 17 18  1  0  0  0
 17 19  1  0  0  0
 19 20  1  0  0  0
 20 33  1  0  0  0
 21 22  1  0  0  0
 21 34  1  0  0  0
 21 35  1  0  0  0
 22 23  1  0  0  0
 22 36  1  0  0  0
 22 37  1  0  0  0
 23 38  1  0  0  0
M  END
> <i_epik_Tot_Q>
0

> <i_epik_Tot_abs_Q>
0

> <i_f3d_flags>
0

> <i_lp_mmshare_version>
64135

> <i_m_source_file_index>
1

> <b_lp_Chiralities_Consistent>
1

> <r_epik_Charging_Adjusted_Penalty>
0.43584

> <r_epik_Ionization_Penalty>
0.43584

> <r_epik_Ionization_Penalty_Charging>
0

> <r_epik_Ionization_Penalty_Neutral>
0.43584

> <r_epik_State_Penalty>
0.43584

> <r_lp_Energy>
32.1786

> <r_lp_tautomer_probability>
1

> <s_epik_cmdline>
J2VwaWtfcHl0aG9uJywgJy1waCcsICc3LjAnLCAnLXRuJywgJzgnLCAnLW1hJywgJzIwMCcsICctaW1hZScsICc8aW5maWxlLm1hZT4nLCAnLW9tYWUnLCAnPG91dGZpbGUubWFlPic=

> <s_epik_input>
W0NIMl0xW0NIMl1DKD1PKVtOSF1bQ0gyXVtDSDJdYyhbY0hdYyhCciljMltPSF0pW2NIXWMyT2MoW2NIXVtjSF1jMTMpYyhJKVtjSF0z

> <s_lp_Force_Field>
OPLS_2005

> <s_lp_Variant>
MCD00007-2

> <s_m_source_file>
MCD00007.smi

$$$$
MCD00008
                    3D
 Schrodinger Suite 2023-4.
 40 42  0  0  1  0            999 V2000
   -1.2174    3.3227    0.9888 O   0  0  0  0  0  0
   -1.1260    2.0980    1.0278 C   0  0  0  0  0  0
   -0.5814    1.3943    0.0183 N   0  0  0  0  0  0
   -0.2484   -0.0323   -0.0247 C   0  0  2  0  0  0
    1.2658   -0.1884    0.1614 C   0  0  0  0  0  0
    1.6474   -0.9010    1.1150 O   0  0  0  0  0  0
    2.0144    0.3994   -0.6511 O   0  5  0  0  0  0
   -0.6404   -0.6036   -1.4085 C   0  0  0  0  0  0
   -2.1212   -0.7622   -1.5289 C   0  0  0  0  0  0
   -3.0195   -1.3857   -0.7035 C   0  0  0  0  0  0
   -4.2682   -1.1570   -1.2161 N   0  0  0  0  0  0
   -4.1685   -0.4796   -2.3654 C   0  0  0  0  0  0
   -2.8655   -0.2397   -2.5568 N   0  3  0  0  0  0
   -5.5370   -1.5252   -0.5840 C   0  0  0  0  0  0
   -5.6769   -0.7573    0.7117 C   0  0  0  0  0  0
   -5.2090   -1.2008    1.8894 C   0  0  0  0  0  0
   -5.0315   -0.3256    3.1110 C   0  0  0  0  0  0
   -3.6030    0.1885    3.2163 C   0  0  0  0  0  0
   -2.8363   -0.0466    4.3753 C   0  0  0  0  0  0
   -1.5065    0.4130    4.4478 C   0  0  0  0  0  0
   -0.9278    1.1085    3.3665 C   0  0  0  0  0  0
    0.7077    1.6552    3.5069 Cl  0  0  0  0  0  0
   -1.6908    1.3468    2.1979 C   0  0  0  0  0  0
   -3.0245    0.8922    2.1369 C   0  0  0  0  0  0
   -0.2389    1.9343   -0.7630 H   0  0  0  0  0  0
   -0.7504   -0.5968    0.7621 H   0  0  0  0  0  0
   -0.2715    0.0312   -2.2162 H   0  0  0  0  0  0
   -0.1912   -1.5874   -1.5545 H   0  0  0  0  0  0
   -2.8641   -1.9149    0.2257 H   0  0  0  0  0  0
   -4.9783   -0.1564   -2.9950 H   0  0  0  0  0  0
   -6.3658   -1.3015   -1.2568 H   0  0  0  0  0  0
   -5.5232   -2.6005   -0.4006 H   0  0  0  0  0  0
   -6.0168    0.2649    0.6262 H   0  0  0  0  0  0
   -4.7790   -2.1901    1.9509 H   0  0  0  0  0  0
   -5.7063    0.5296    3.0573 H   0  0  0  0  0  0
   -5.3066   -0.8941    3.9999 H   0  0  0  0  0  0
   -3.2610   -0.5829    5.2112 H   0  0  0  0  0  0
   -0.9262    0.2290    5.3400 H   0  0  0  0  0  0
   -3.6069    1.0833    1.2473 H   0  0  0  0  0  0
   -2.4861    0.2816   -3.3373 H   0  0  0  0  0  0
  1  2  2  0  0  0
  2  3  1  0  0  0
  2 23  1  0  0  0
  3  4  1  0  0  0
  3 25  1  0  0  0
  4  5  1  0  0  0
  4  8  1  0  0  0
  4 26  1  0  0  0
  5  6  2  0  0  0
  5  7  1  0  0  0
  8  9  1  0  0  0
  8 27  1  0  0  0
  8 28  1  0  0  0
  9 10  2  0  0  0
  9 13  1  0  0  0
 10 11  1  0  0  0
 10 29  1  0  0  0
 11 12  1  0  0  0
 11 14  1  0  0  0
 12 13  2  0  0  0
 12 30  1  0  0  0
 13 40  1  0  0  0
 14 15  1  0  0  0
 14 31  1  0  0  0
 14 32  1  0  0  0
 15 16  2  0  0  0
 15 33  1  0  0  0
 16 17  1  0  0  0
 16 34  1  0  0  0
 17 18  1  0  0  0
 17 35  1  0  0  0
 17 36  1  0  0  0
 18 19  1  0  0  0
 18 24  2  0  0  0
 19 20  2  0  0  0
 19 37  1  0  0  0
 20 21  1  0  0  0
 20 38  1  0  0  0
 21 22  1  0  0  0
 21 23  2  0  0  0
 23 24  1  0  0  0
 24 39  1  0  0  0
M  CHG  2   7  -1  13   1
M  END
> <i_epik_Tot_Q>
0

> <i_epik_Tot_abs_Q>
2

> <i_f3d_flags>
0

> <i_lp_mmshare_version>
64135

> <i_m_source_file_index>
1

> <b_lp_Chiralities_Consistent>
1

> <r_epik_Charging_Adjusted_Penalty>
0.178978

> <r_epik_Ionization_Penalty>
0.178979

> <r_epik_Ionization_Penalty_Charging>
6.34842e-05

> <r_epik_Ionization_Penalty_Neutral>
0.178915

> <r_epik_State_Penalty>
0.178914

> <r_lp_Energy>
20.1334

> <r_lp_tautomer_probability>
1

> <s_epik_cmdline>
J2VwaWtfcHl0aG9uJywgJy1waCcsICc3LjAnLCAnLXRuJywgJzgnLCAnLW1hJywgJzIwMCcsICctaW1hZScsICc8aW5maWxlLm1hZT4nLCAnLW9tYWUnLCAnPG91dGZpbGUubWFlPic=

> <s_epik_input>
Tz1DKFtPSF0pW0NASF0oW0NIMl0xKVtOSF1DKD1PKWMoW2NIXTIpYyhDbClbY0hdW2NIXWMyW0NIMl1cW0NIXT1bQ0hdXFtDSDJdbihbY0hdYzEzKVtjSF1uMw==

> <s_lp_Force_Field>
OPLS_2005

> <s_lp_Variant>
MCD00008-1

> <s_m_source_file>
MCD00008.smi

$$$$
MCD00008
                    3D
 Schrodinger Suite 2023-4.
 39 41  0  0  1  0            999 V2000
   -0.9762    3.3082    0.9495 O   0  0  0  0  0  0
   -0.9535    2.0805    1.0066 C   0  0  0  0  0  0
   -0.5246    1.3275   -0.0231 N   0  0  0  0  0  0
   -0.2121   -0.1043   -0.0228 C   0  0  2  0  0  0
    1.3029   -0.2764    0.1524 C   0  0  0  0  0  0
    1.6863   -0.9104    1.1596 O   0  0  0  0  0  0
    2.0522    0.2293   -0.7131 O   0  5  0  0  0  0
   -0.6378   -0.7255   -1.3746 C   0  0  0  0  0  0
   -2.1291   -0.8214   -1.4821 C   0  0  0  0  0  0
   -2.9682   -1.6254   -0.7485 C   0  0  0  0  0  0
   -4.2612   -1.2161   -1.0363 N   0  0  0  0  0  0
   -4.1390   -0.2704   -1.9782 C   0  0  0  0  0  0
   -2.8830    0.0334   -2.2858 N   0  0  0  0  0  0
   -5.4595   -1.6533   -0.3516 C   0  0  0  0  0  0
   -5.5437   -0.9155    0.9659 C   0  0  0  0  0  0
   -4.8925   -1.3074    2.0727 C   0  0  0  0  0  0
   -4.6953   -0.4370    3.2950 C   0  0  0  0  0  0
   -3.3002    0.1715    3.3416 C   0  0  0  0  0  0
   -2.5281    0.0982    4.5185 C   0  0  0  0  0  0
   -1.2380    0.6624    4.5544 C   0  0  0  0  0  0
   -0.7050    1.3063    3.4193 C   0  0  0  0  0  0
    0.8853    1.9811    3.5158 Cl  0  0  0  0  0  0
   -1.4713    1.3819    2.2310 C   0  0  0  0  0  0
   -2.7648    0.8170    2.2042 C   0  0  0  0  0  0
   -0.2393    1.8257   -0.8535 H   0  0  0  0  0  0
   -0.7154   -0.6341    0.7871 H   0  0  0  0  0  0
   -0.2319   -0.1480   -2.2068 H   0  0  0  0  0  0
   -0.2134   -1.7261   -1.4712 H   0  0  0  0  0  0
   -2.7523   -2.3699    0.0039 H   0  0  0  0  0  0
   -4.9849    0.2513   -2.4015 H   0  0  0  0  0  0
   -6.3389   -1.4512   -0.9639 H   0  0  0  0  0  0
   -5.3991   -2.7299   -0.1863 H   0  0  0  0  0  0
   -6.0121    0.0577    0.9406 H   0  0  0  0  0  0
   -4.3452   -2.2389    2.0627 H   0  0  0  0  0  0
   -5.4261    0.3726    3.2953 H   0  0  0  0  0  0
   -4.8826   -1.0351    4.1872 H   0  0  0  0  0  0
   -2.9206   -0.3909    5.3980 H   0  0  0  0  0  0
   -0.6536    0.6008    5.4607 H   0  0  0  0  0  0
   -3.3513    0.8862    1.2993 H   0  0  0  0  0  0
  1  2  2  0  0  0
  2  3  1  0  0  0
  2 23  1  0  0  0
  3  4  1  0  0  0
  3 25  1  0  0  0
  4  5  1  0  0  0
  4  8  1  0  0  0
  4 26  1  0  0  0
  5  6  2  0  0  0
  5  7  1  0  0  0
  8  9  1  0  0  0
  8 27  1  0  0  0
  8 28  1  0  0  0
  9 10  2  0  0  0
  9 13  1  0  0  0
 10 11  1  0  0  0
 10 29  1  0  0  0
 11 12  1  0  0  0
 11 14  1  0  0  0
 12 13  2  0  0  0
 12 30  1  0  0  0
 14 15  1  0  0  0
 14 31  1  0  0  0
 14 32  1  0  0  0
 15 16  2  0  0  0
 15 33  1  0  0  0
 16 17  1  0  0  0
 16 34  1  0  0  0
 17 18  1  0  0  0
 17 35  1  0  0  0
 17 36  1  0  0  0
 18 19  1  0  0  0
 18 24  2  0  0  0
 19 20  2  0  0  0
 19 37  1  0  0  0
 20 21  1  0  0  0
 20 38  1  0  0  0
 21 22  1  0  0  0
 21 23  2  0  0  0
 23 24  1  0  0  0
 24 39  1  0  0  0
M  CHG  1   7  -1
M  END
> <i_epik_Tot_Q>
-1

> <i_epik_Tot_abs_Q>
1

> <i_f3d_flags>
0

> <i_lp_mmshare_version>
64135

> <i_m_source_file_index>
1

> <b_lp_Chiralities_Consistent>
1

> <r_epik_Charging_Adjusted_Penalty>
1.59342

> <r_epik_Ionization_Penalty>
0.796758

> <r_epik_Ionization_Penalty_Charging>
0.796757

> <r_epik_Ionization_Penalty_Neutral>
8.32052e-07

> <r_epik_State_Penalty>
0.796663

> <r_lp_Energy>
21.4583

> <r_lp_tautomer_probability>
1

> <s_epik_cmdline>
J2VwaWtfcHl0aG9uJywgJy1waCcsICc3LjAnLCAnLXRuJywgJzgnLCAnLW1hJywgJzIwMCcsICctaW1hZScsICc8aW5maWxlLm1hZT4nLCAnLW9tYWUnLCAnPG91dGZpbGUubWFlPic=

> <s_epik_input>
Tz1DKFtPSF0pW0NASF0oW0NIMl0xKVtOSF1DKD1PKWMoW2NIXTIpYyhDbClbY0hdW2NIXWMyW0NIMl1cW0NIXT1bQ0hdXFtDSDJdbihbY0hdYzEzKVtjSF1uMw==

> <s_lp_Force_Field>
OPLS_2005

> <s_lp_Variant>
MCD00008-2

> <s_m_source_file>
MCD00008.smi

$$$$
MCD00009
                    3D
 Schrodinger Suite 2023-4.
 40 43  0  0  1  0            999 V2000
   -1.1914    3.6143    0.5468 O   0  0  0  0  0  0
   -0.5955    2.8893    1.3442 C   0  0  0  0  0  0
    0.7756    2.7630    1.4860 N   0  0  0  0  0  0
    1.7628    3.5035    0.7082 C   0  0  0  0  0  0
    2.4786    2.5886   -0.2981 C   0  0  0  0  0  0
    1.7378    2.4400   -1.6398 C   0  0  0  0  0  0
    2.2950    1.3725   -2.4039 O   0  0  0  0  0  0
    1.9779    0.0710   -2.0678 C   0  0  0  0  0  0
    2.7601   -0.9438   -2.6523 C   0  0  0  0  0  0
    2.5108   -2.2941   -2.3522 C   0  0  0  0  0  0
    1.4828   -2.6358   -1.4956 C   0  0  0  0  0  0
    1.0268   -3.8458   -1.0371 N   0  0  0  0  0  0
   -0.0371   -3.7474   -0.2017 N   0  0  0  0  0  0
   -0.2095   -2.4494   -0.1841 C   0  0  0  0  0  0
    0.6896   -1.6493   -0.9314 C   0  0  0  0  0  0
    0.9207   -0.2792   -1.1876 C   0  0  0  0  0  0
   -1.3302   -1.9279    0.6148 C   0  0  0  0  0  0
   -2.1335   -2.5996    1.5092 C   0  0  0  0  0  0
   -3.3411   -1.5717    2.2368 S   0  0  0  0  0  0
   -2.7304   -0.2365    1.2762 C   0  0  0  0  0  0
   -1.6927   -0.5799    0.5143 N   0  0  0  0  0  0
   -3.2761    1.1527    1.3289 C   0  0  0  0  0  0
   -2.5973    2.0375    2.3893 C   0  0  0  0  0  0
   -1.1817    2.0801    2.2455 O   0  0  0  0  0  0
    1.0972    2.1198    2.1950 H   0  0  0  0  0  0
    1.3274    4.3712    0.2099 H   0  0  0  0  0  0
    2.4932    3.8942    1.4171 H   0  0  0  0  0  0
    3.4722    2.9880   -0.5032 H   0  0  0  0  0  0
    2.6460    1.6141    0.1622 H   0  0  0  0  0  0
    0.6597    2.3451   -1.5182 H   0  0  0  0  0  0
    1.8706    3.3571   -2.2140 H   0  0  0  0  0  0
    3.5644   -0.6836   -3.3250 H   0  0  0  0  0  0
    3.1237   -3.0650   -2.7952 H   0  0  0  0  0  0
    1.4191   -4.7449   -1.2773 H   0  0  0  0  0  0
    0.2953    0.4586   -0.7148 H   0  0  0  0  0  0
   -2.0834   -3.6419    1.7874 H   0  0  0  0  0  0
   -3.1727    1.6049    0.3418 H   0  0  0  0  0  0
   -4.3464    1.0982    1.5286 H   0  0  0  0  0  0
   -3.0124    3.0462    2.3689 H   0  0  0  0  0  0
   -2.8132    1.6358    3.3795 H   0  0  0  0  0  0
  1  2  2  0  0  0
  2  3  1  0  0  0
  2 24  1  0  0  0
  3  4  1  0  0  0
  3 25  1  0  0  0
  4  5  1  0  0  0
  4 26  1  0  0  0
  4 27  1  0  0  0
  5  6  1  0  0  0
  5 28  1  0  0  0
  5 29  1  0  0  0
  6  7  1  0  0  0
  6 30  1  0  0  0
  6 31  1  0  0  0
  7  8  1  0  0  0
  8  9  2  0  0  0
  8 16  1  0  0  0
  9 10  1  0  0  0
  9 32  1  0  0  0
 10 11  2  0  0  0
 10 33  1  0  0  0
 11 12  1  0  0  0
 11 15  1  0  0  0
 12 13  1  0  0  0
 12 34  1  0  0  0
 13 14  2  0  0  0
 14 15  1  0  0  0
 14 17  1  0  0  0
 15 16  2  0  0  0
 16 35  1  0  0  0
 17 18  2  0  0  0
 17 21  1  0  0  0
 18 19  1  0  0  0
 18 36  1  0  0  0
 19 20  1  0  0  0
 20 21  2  0  0  0
 20 22  1  0  0  0
 22 23  1  0  0  0
 22 37  1  0  0  0
 22 38  1  0  0  0
 23 24  1  0  0  0
 23 39  1  0  0  0
 23 40  1  0  0  0
M  END
> <i_epik_Tot_Q>
0

> <i_epik_Tot_abs_Q>
0

> <i_f3d_flags>
0

> <i_lp_mmshare_version>
64135

> <i_m_source_file_index>
1

> <b_lp_Chiralities_Consistent>
1

> <r_epik_Charging_Adjusted_Penalty>
0.0117328

> <r_epik_Ionization_Penalty>
5.67564e-05

> <r_epik_Ionization_Penalty_Charging>
0

> <r_epik_Ionization_Penalty_Neutral>
5.67564e-05

> <r_epik_State_Penalty>
0.0117328

> <r_lp_Energy>
15.9634

> <r_lp_tautomer_probability>
0.980392

> <s_epik_Chemistry_Notes>
This compound has an ester and may undergo hydrolysis at high or low pH.

> <s_epik_cmdline>
J2VwaWtfcHl0aG9uJywgJy1waCcsICc3LjAnLCAnLXRuJywgJzgnLCAnLW1hJywgJzIwMCcsICctaW1hZScsICc8aW5maWxlLm1hZT4nLCAnLW9tYWUnLCAnPG91dGZpbGUubWFlPic=

> <s_epik_input>
TzFbQ0gyXVtDSDJdW0NIMl1bTkhdQyg9TylPW0NIMl1bQ0gyXWMobjIpc1tjSF1jMmMobltuSF0zKWMoW2NIXTQpYzNbY0hdW2NIXWMxNA==

> <s_lp_Force_Field>
OPLS_2005

> <s_lp_Variant>
MCD00009-1

> <s_m_source_file>
MCD00009.smi

$$$$
MCD00009
                    3D
 Schrodinger Suite 2023-4.
 40 43  0  0  1  0            999 V2000
   -3.5160   -1.1428    1.9357 O   0  0  0  0  0  0
   -2.3644   -1.5713    2.0252 C   0  0  0  0  0  0
   -1.3789   -1.1152    2.8827 N   0  0  0  0  0  0
   -1.5363    0.0462    3.7503 C   0  0  0  0  0  0
   -0.7763    1.2545    3.1828 C   0  0  0  0  0  0
    0.7509    1.0677    3.2173 C   0  0  0  0  0  0
    1.4177    2.1503    2.5794 O   0  0  0  0  0  0
    1.6432    2.0926    1.2193 C   0  0  0  0  0  0
    2.5026    3.0907    0.6956 C   0  0  0  0  0  0
    2.8519    3.1226   -0.6715 C   0  0  0  0  0  0
    2.3299    2.1449   -1.5345 C   0  0  0  0  0  0
    2.5668    1.9965   -2.8479 N   0  0  0  0  0  0
    1.8162    0.8889   -3.1556 N   0  0  0  0  0  0
    1.1238    0.3925   -2.0585 C   0  0  0  0  0  0
    1.4746    1.2086   -0.9818 C   0  0  0  0  0  0
    1.0776    1.1046    0.3621 C   0  0  0  0  0  0
    0.2621   -0.7757   -2.1975 C   0  0  0  0  0  0
    0.3861   -1.8021   -3.1036 C   0  0  0  0  0  0
   -0.8807   -2.9865   -2.9503 S   0  0  0  0  0  0
   -1.5818   -2.0168   -1.6655 C   0  0  0  0  0  0
   -0.8577   -0.9329   -1.3716 N   0  0  0  0  0  0
   -2.8516   -2.3829   -0.9703 C   0  0  0  0  0  0
   -2.6460   -3.2251    0.3023 C   0  0  0  0  0  0
   -1.8486   -2.5634    1.2775 O   0  0  0  0  0  0
   -0.4829   -1.5782    2.8344 H   0  0  0  0  0  0
   -2.5901    0.2991    3.8763 H   0  0  0  0  0  0
   -1.1606   -0.2041    4.7427 H   0  0  0  0  0  0
   -1.1161    1.4483    2.1651 H   0  0  0  0  0  0
   -1.0344    2.1447    3.7572 H   0  0  0  0  0  0
    1.0784    1.0519    4.2571 H   0  0  0  0  0  0
    1.0643    0.1078    2.8056 H   0  0  0  0  0  0
    2.9152    3.8357    1.3600 H   0  0  0  0  0  0
    3.5210    3.8829   -1.0467 H   0  0  0  0  0  0
    1.7765    0.5141   -4.0925 H   0  0  0  0  0  0
    0.4107    0.3246    0.6961 H   0  0  0  0  0  0
    1.1519   -1.9338   -3.8536 H   0  0  0  0  0  0
   -3.4006   -1.4687   -0.7431 H   0  0  0  0  0  0
   -3.4749   -2.9392   -1.6707 H   0  0  0  0  0  0
   -3.6101   -3.4968    0.7344 H   0  0  0  0  0  0
   -2.1506   -4.1605    0.0418 H   0  0  0  0  0  0
  1  2  2  0  0  0
  2  3  1  0  0  0
  2 24  1  0  0  0
  3  4  1  0  0  0
  3 25  1  0  0  0
  4  5  1  0  0  0
  4 26  1  0  0  0
  4 27  1  0  0  0
  5  6  1  0  0  0
  5 28  1  0  0  0
  5 29  1  0  0  0
  6  7  1  0  0  0
  6 30  1  0  0  0
  6 31  1  0  0  0
  7  8  1  0  0  0
  8  9  1  0  0  0
  8 16  2  0  0  0
  9 10  2  0  0  0
  9 32  1  0  0  0
 10 11  1  0  0  0
 10 33  1  0  0  0
 11 12  2  0  0  0
 11 15  1  0  0  0
 12 13  1  0  0  0
 13 34  1  0  0  0
 13 14  1  0  0  0
 14 15  2  0  0  0
 14 17  1  0  0  0
 15 16  1  0  0  0
 16 35  1  0  0  0
 17 18  2  0  0  0
 17 21  1  0  0  0
 18 19  1  0  0  0
 18 36  1  0  0  0
 19 20  1  0  0  0
 20 21  2  0  0  0
 20 22  1  0  0  0
 22 23  1  0  0  0
 22 37  1  0  0  0
 22 38  1  0  0  0
 23 24  1  0  0  0
 23 39  1  0  0  0
 23 40  1  0  0  0
M  END
> <i_epik_Tot_Q>
0

> <i_epik_Tot_abs_Q>
0

> <i_f3d_flags>
0

> <i_lp_mmshare_version>
64135

> <i_m_source_file_index>
1

> <b_lp_Chiralities_Consistent>
1

> <r_epik_Charging_Adjusted_Penalty>
2.32955

> <r_epik_Ionization_Penalty>
1.64811e-05

> <r_epik_Ionization_Penalty_Charging>
0

> <r_epik_Ionization_Penalty_Neutral>
1.64811e-05

> <r_epik_State_Penalty>
2.32955

> <r_lp_Energy>
19.0843

> <r_lp_tautomer_probability>
0.0196078

> <s_epik_Chemistry_Notes>
This compound has an ester and may undergo hydrolysis at high or low pH.

> <s_epik_cmdline>
J2VwaWtfcHl0aG9uJywgJy1waCcsICc3LjAnLCAnLXRuJywgJzgnLCAnLW1hJywgJzIwMCcsICctaW1hZScsICc8aW5maWxlLm1hZT4nLCAnLW9tYWUnLCAnPG91dGZpbGUubWFlPic=

> <s_epik_input>
TzFbQ0gyXVtDSDJdW0NIMl1bTkhdQyg9TylPW0NIMl1bQ0gyXWMobjIpc1tjSF1jMmMobltuSF0zKWMoW2NIXTQpYzNbY0hdW2NIXWMxNA==

> <s_lp_Force_Field>
OPLS_2005

> <s_lp_Variant>
MCD00009-2

> <s_m_source_file>
MCD00009.smi

$$$$
MCD00010
                    3D
 Schrodinger Suite 2023-4.
 48 51  0  0  1  0            999 V2000
    1.1855    4.6773   -1.9651 C   0  0  0  0  0  0
    0.3301    3.9205   -1.1398 C   0  0  0  0  0  0
    0.7177    2.6061   -0.7865 C   0  0  0  0  0  0
    1.9532    2.1246   -1.2740 C   0  0  0  0  0  0
    2.7308    2.9648   -2.0962 C   0  0  0  0  0  0
    2.3611    4.2160   -2.4407 N   0  0  0  0  0  0
    2.3960    0.8602   -0.9747 O   0  0  0  0  0  0
    1.6990    0.1221   -0.0476 C   0  0  0  0  0  0
    2.1818   -1.1278    0.3847 C   0  0  0  0  0  0
    1.4663   -1.9160    1.3070 C   0  0  0  0  0  0
    0.2414   -1.4605    1.8574 C   0  0  0  0  0  0
   -0.2615   -0.1880    1.5112 C   0  0  0  0  0  0
    0.4706    0.5158    0.5300 C   0  0  0  0  0  0
   -0.0504    1.7482    0.0249 N   0  0  0  0  0  0
   -1.5132    1.7959   -0.1748 C   0  0  0  0  0  0
   -2.0046    1.1165   -1.4790 C   0  0  0  0  0  0
   -1.9055   -0.4226   -1.5219 C   0  0  0  0  0  0
   -2.8095   -1.1417   -0.5046 C   0  0  0  0  0  0
   -2.3328   -2.5164   -0.2528 N   0  3  0  0  0  0
   -2.9218   -3.1515    0.9443 C   0  0  0  0  0  0
   -2.2302   -4.4829    1.2856 C   0  0  0  0  0  0
   -0.7156   -4.3924    1.5724 C   0  0  0  0  0  0
   -0.3223   -3.6041    2.8427 C   0  0  0  0  0  0
   -0.5358   -2.1991    2.7260 O   0  0  0  0  0  0
    0.9182    5.6846   -2.2483 H   0  0  0  0  0  0
   -0.5856    4.3686   -0.7871 H   0  0  0  0  0  0
    3.6761    2.6215   -2.4898 H   0  0  0  0  0  0
    3.1134   -1.5002   -0.0155 H   0  0  0  0  0  0
    1.8819   -2.8751    1.5741 H   0  0  0  0  0  0
   -1.1734    0.1671    1.9634 H   0  0  0  0  0  0
   -2.0663    1.4222    0.6808 H   0  0  0  0  0  0
   -1.8321    2.8350   -0.2057 H   0  0  0  0  0  0
   -3.0460    1.3957   -1.6413 H   0  0  0  0  0  0
   -1.4576    1.5310   -2.3265 H   0  0  0  0  0  0
   -2.1654   -0.7687   -2.5229 H   0  0  0  0  0  0
   -0.8675   -0.7208   -1.3827 H   0  0  0  0  0  0
   -2.8165   -0.6056    0.4418 H   0  0  0  0  0  0
   -3.8425   -1.1639   -0.8531 H   0  0  0  0  0  0
   -2.5132   -3.0899   -1.0644 H   0  0  0  0  0  0
   -2.8638   -2.4742    1.7961 H   0  0  0  0  0  0
   -3.9829   -3.3232    0.7605 H   0  0  0  0  0  0
   -2.7285   -4.9295    2.1469 H   0  0  0  0  0  0
   -2.3868   -5.1794    0.4609 H   0  0  0  0  0  0
   -0.3479   -5.4117    1.6956 H   0  0  0  0  0  0
   -0.1919   -4.0079    0.6981 H   0  0  0  0  0  0
   -0.9250   -3.9571    3.6796 H   0  0  0  0  0  0
    0.7085   -3.8115    3.1303 H   0  0  0  0  0  0
   -1.3344   -2.4688   -0.1070 H   0  0  0  0  0  0
  1  2  2  0  0  0
  1  6  1  0  0  0
  1 25  1  0  0  0
  2  3  1  0  0  0
  2 26  1  0  0  0
  3  4  2  0  0  0
  3 14  1  0  0  0
  4  5  1  0  0  0
  4  7  1  0  0  0
  5  6  2  0  0  0
  5 27  1  0  0  0
  7  8  1  0  0  0
  8  9  2  0  0  0
  8 13  1  0  0  0
  9 10  1  0  0  0
  9 28  1  0  0  0
 10 11  2  0  0  0
 10 29  1  0  0  0
 11 12  1  0  0  0
 11 24  1  0  0  0
 12 13  2  0  0  0
 12 30  1  0  0  0
 13 14  1  0  0  0
 14 15  1  0  0  0
 15 16  1  0  0  0
 15 31  1  0  0  0
 15 32  1  0  0  0
 16 17  1  0  0  0
 16 33  1  0  0  0
 16 34  1  0  0  0
 17 18  1  0  0  0
 17 35  1  0  0  0
 17 36  1  0  0  0
 18 19  1  0  0  0
 18 37  1  0  0  0
 18 38  1  0  0  0
 19 20  1  0  0  0
 19 39  1  0  0  0
 19 48  1  0  0  0
 20 21  1  0  0  0
 20 40  1  0  0  0
 20 41  1  0  0  0
 21 22  1  0  0  0
 21 42  1  0  0  0
 21 43  1  0  0  0
 22 23  1  0  0  0
 22 44  1  0  0  0
 22 45  1  0  0  0
 23 24  1  0  0  0
 23 46  1  0  0  0
 23 47  1  0  0  0
M  CHG  1  19   1
M  END
> <i_epik_Tot_Q>
1

> <i_epik_Tot_abs_Q>
1

> <i_f3d_flags>
0

> <i_lp_mmshare_version>
64135

> <i_m_source_file_index>
1

> <b_lp_Chiralities_Consistent>
1

> <r_epik_Charging_Adjusted_Penalty>
0.000478317

> <r_epik_Ionization_Penalty>
0.0052013

> <r_epik_Ionization_Penalty_Charging>
0.000478317

> <r_epik_Ionization_Penalty_Neutral>
0.00472299

> <r_epik_State_Penalty>
-0

> <r_lp_Energy>
34.3588

> <r_lp_tautomer_probability>
1

> <s_epik_cmdline>
J2VwaWtfcHl0aG9uJywgJy1waCcsICc3LjAnLCAnLXRuJywgJzgnLCAnLW1hJywgJzIwMCcsICctaW1hZScsICc8aW5maWxlLm1hZT4nLCAnLW9tYWUnLCAnPG91dGZpbGUubWFlPic=

> <s_epik_input>
W2NIXTFbY0hdbltjSF1jKGMxMilPYzNjNE4yW0NIMl1bQ0gyXVtDSDJdW0NIMl1bTkhdW0NIMl1bQ0gyXVtDSDJdW0NIMl1PYyhbY0hdNClbY0hdW2NIXTM=

> <s_lp_Force_Field>
OPLS_2005

> <s_lp_Variant>
MCD00010-1

> <s_m_source_file>
MCD00010.smi

$$$$
MCD00011
                    3D
 Schrodinger Suite 2023-4.
 46 49  0  0  1  0            999 V2000
    0.7605   -1.9306   -4.4066 C   0  0  0  0  0  0
    0.3559   -0.8292   -3.6265 C   0  0  0  0  0  0
   -0.0630   -1.0538   -2.2912 C   0  0  0  0  0  0
   -0.0493   -2.3834   -1.8160 C   0  0  0  0  0  0
    0.3738   -3.4131   -2.6805 C   0  0  0  0  0  0
    0.7734   -3.1998   -3.9511 N   0  0  0  0  0  0
   -0.4407   -2.6924   -0.5391 O   0  0  0  0  0  0
   -0.8281   -1.6787    0.3045 C   0  0  0  0  0  0
   -1.1943   -1.9779    1.6311 C   0  0  0  0  0  0
   -1.5788   -0.9701    2.5331 C   0  0  0  0  0  0
   -1.6075    0.3814    2.1285 C   0  0  0  0  0  0
   -1.2777    0.7524    0.8078 C   0  0  0  0  0  0
   -0.8908   -0.3079   -0.0484 C   0  0  0  0  0  0
   -0.4907   -0.0439   -1.4025 N   0  0  0  0  0  0
   -0.6008    1.3344   -1.9133 C   0  0  0  0  0  0
    0.7501    2.0855   -1.9810 C   0  0  0  0  0  0
    1.3200    2.5868   -0.6431 C   0  0  0  0  0  0
    1.9101    1.4910    0.1562 N   0  3  0  0  0  0
    2.7402    1.9150    1.3071 C   0  0  0  0  0  0
    1.9416    2.6662    2.3836 C   0  0  0  0  0  0
    0.9387    1.8073    2.8964 O   0  0  0  0  0  0
    0.0465    2.4647    3.7820 C   0  0  0  0  0  0
   -1.1100    1.5201    4.1373 C   0  0  0  0  0  0
   -1.9685    1.3696    3.0106 O   0  0  0  0  0  0
    1.0848   -1.7858   -5.4266 H   0  0  0  0  0  0
    0.3804    0.1528   -4.0724 H   0  0  0  0  0  0
    0.3929   -4.4382   -2.3409 H   0  0  0  0  0  0
   -1.1751   -3.0048    1.9657 H   0  0  0  0  0  0
   -1.8540   -1.2403    3.5422 H   0  0  0  0  0  0
   -1.3005    1.7976    0.5496 H   0  0  0  0  0  0
   -1.0080    1.2777   -2.9223 H   0  0  0  0  0  0
   -1.3563    1.9350   -1.4153 H   0  0  0  0  0  0
    1.5023    1.4915   -2.5006 H   0  0  0  0  0  0
    0.5927    2.9617   -2.6106 H   0  0  0  0  0  0
    2.1040    3.3156   -0.8524 H   0  0  0  0  0  0
    0.5493    3.1070   -0.0749 H   0  0  0  0  0  0
    1.1640    0.8975    0.4914 H   0  0  0  0  0  0
    3.1945    1.0257    1.7448 H   0  0  0  0  0  0
    3.5597    2.5379    0.9466 H   0  0  0  0  0  0
    2.6047    2.9698    3.1947 H   0  0  0  0  0  0
    1.5058    3.5775    1.9725 H   0  0  0  0  0  0
    0.5862    2.7519    4.6853 H   0  0  0  0  0  0
   -0.3502    3.3766    3.3327 H   0  0  0  0  0  0
   -0.7343    0.5730    4.5261 H   0  0  0  0  0  0
   -1.7016    1.9658    4.9372 H   0  0  0  0  0  0
    2.4975    0.9449   -0.4578 H   0  0  0  0  0  0
  1  2  2  0  0  0
  1  6  1  0  0  0
  1 25  1  0  0  0
  2  3  1  0  0  0
  2 26  1  0  0  0
  3  4  2  0  0  0
  3 14  1  0  0  0
  4  5  1  0  0  0
  4  7  1  0  0  0
  5  6  2  0  0  0
  5 27  1  0  0  0
  7  8  1  0  0  0
  8  9  2  0  0  0
  8 13  1  0  0  0
  9 10  1  0  0  0
  9 28  1  0  0  0
 10 11  2  0  0  0
 10 29  1  0  0  0
 11 12  1  0  0  0
 11 24  1  0  0  0
 12 13  2  0  0  0
 12 30  1  0  0  0
 13 14  1  0  0  0
 14 15  1  0  0  0
 15 16  1  0  0  0
 15 31  1  0  0  0
 15 32  1  0  0  0
 16 17  1  0  0  0
 16 33  1  0  0  0
 16 34  1  0  0  0
 17 18  1  0  0  0
 17 35  1  0  0  0
 17 36  1  0  0  0
 18 19  1  0  0  0
 18 37  1  0  0  0
 18 46  1  0  0  0
 19 20  1  0  0  0
 19 38  1  0  0  0
 19 39  1  0  0  0
 20 21  1  0  0  0
 20 40  1  0  0  0
 20 41  1  0  0  0
 21 22  1  0  0  0
 22 23  1  0  0  0
 22 42  1  0  0  0
 22 43  1  0  0  0
 23 24  1  0  0  0
 23 44  1  0  0  0
 23 45  1  0  0  0
M  CHG  1  18   1
M  END
> <i_epik_Tot_Q>
1

> <i_epik_Tot_abs_Q>
1

> <i_f3d_flags>
0

> <i_lp_mmshare_version>
64135

> <i_m_source_file_index>
1

> <b_lp_Chiralities_Consistent>
1

> <r_epik_Charging_Adjusted_Penalty>
0.00320998

> <r_epik_Ionization_Penalty>
0.00713882

> <r_epik_Ionization_Penalty_Charging>
0.00320998

> <r_epik_Ionization_Penalty_Neutral>
0.00392884

> <r_epik_State_Penalty>
-0

> <r_lp_Energy>
34.8877

> <r_lp_tautomer_probability>
1

> <s_epik_cmdline>
J2VwaWtfcHl0aG9uJywgJy1waCcsICc3LjAnLCAnLXRuJywgJzgnLCAnLW1hJywgJzIwMCcsICctaW1hZScsICc8aW5maWxlLm1hZT4nLCAnLW9tYWUnLCAnPG91dGZpbGUubWFlPic=

> <s_epik_input>
W2NIXTFbY0hdbltjSF1jKGMxMilPYzNjNE4yW0NIMl1bQ0gyXVtDSDJdW05IXVtDSDJdW0NIMl1PW0NIMl1bQ0gyXU9jKFtjSF00KVtjSF1bY0hdMw==

> <s_lp_Force_Field>
OPLS_2005

> <s_lp_Variant>
MCD00011-1

> <s_m_source_file>
MCD00011.smi

$$$$
MCD00012
                    3D
 Schrodinger Suite 2023-4.
 46 49  0  0  1  0            999 V2000
    3.9869   -0.7012   -2.9519 C   0  0  0  0  0  0
    3.4713   -0.1766   -1.7501 C   0  0  0  0  0  0
    2.1012    0.1839   -1.6935 C   0  0  0  0  0  0
    1.3226   -0.0242   -2.8544 C   0  0  0  0  0  0
    1.9394   -0.5540   -4.0056 C   0  0  0  0  0  0
    3.2450   -0.8874   -4.0624 N   0  0  0  0  0  0
   -0.0163    0.2709   -2.8811 O   0  0  0  0  0  0
   -0.6418    0.6056   -1.7041 C   0  0  0  0  0  0
   -2.0472    0.6818   -1.6474 C   0  0  0  0  0  0
   -2.7233    0.9855   -0.4507 C   0  0  0  0  0  0
   -1.9994    1.2595    0.7342 C   0  0  0  0  0  0
   -0.5898    1.2668    0.7254 C   0  0  0  0  0  0
    0.0274    0.8870   -0.4894 C   0  0  0  0  0  0
    1.4522    0.7159   -0.5576 N   0  0  0  0  0  0
    2.2210    0.8428    0.6947 C   0  0  0  0  0  0
    2.2607   -0.4685    1.5077 C   0  0  0  0  0  0
    1.0894   -0.5509    2.3005 O   0  0  0  0  0  0
    0.8075   -1.8386    2.8172 C   0  0  0  0  0  0
   -0.5329   -1.7550    3.5608 C   0  0  0  0  0  0
   -1.6103   -1.3397    2.6399 N   0  3  0  0  0  0
   -2.9401   -1.1738    3.2608 C   0  0  0  0  0  0
   -3.9406   -0.5466    2.2715 C   0  0  0  0  0  0
   -3.8936    0.9968    2.2153 C   0  0  0  0  0  0
   -2.5904    1.5102    1.9531 O   0  0  0  0  0  0
    5.0270   -0.9837   -3.0207 H   0  0  0  0  0  0
    4.1405   -0.0766   -0.9107 H   0  0  0  0  0  0
    1.3653   -0.7205   -4.9051 H   0  0  0  0  0  0
   -2.6221    0.4795   -2.5392 H   0  0  0  0  0  0
   -3.8020    1.0015   -0.4658 H   0  0  0  0  0  0
   -0.0757    1.4939    1.6440 H   0  0  0  0  0  0
    3.2395    1.1402    0.4548 H   0  0  0  0  0  0
    1.8919    1.6800    1.3067 H   0  0  0  0  0  0
    2.3609   -1.3287    0.8436 H   0  0  0  0  0  0
    3.1249   -0.4732    2.1727 H   0  0  0  0  0  0
    0.7465   -2.5706    2.0103 H   0  0  0  0  0  0
    1.6037   -2.1524    3.4935 H   0  0  0  0  0  0
   -0.7817   -2.7237    3.9955 H   0  0  0  0  0  0
   -0.4595   -1.0396    4.3811 H   0  0  0  0  0  0
   -1.3434   -0.4509    2.2398 H   0  0  0  0  0  0
   -3.2925   -2.1587    3.5690 H   0  0  0  0  0  0
   -2.8669   -0.5648    4.1629 H   0  0  0  0  0  0
   -3.8056   -0.9767    1.2786 H   0  0  0  0  0  0
   -4.9483   -0.8318    2.5754 H   0  0  0  0  0  0
   -4.6244    1.3902    1.5089 H   0  0  0  0  0  0
   -4.1945    1.3896    3.1869 H   0  0  0  0  0  0
   -1.6825   -2.0162    1.8934 H   0  0  0  0  0  0
  1  2  2  0  0  0
  1  6  1  0  0  0
  1 25  1  0  0  0
  2  3  1  0  0  0
  2 26  1  0  0  0
  3  4  2  0  0  0
  3 14  1  0  0  0
  4  5  1  0  0  0
  4  7  1  0  0  0
  5  6  2  0  0  0
  5 27  1  0  0  0
  7  8  1  0  0  0
  8  9  2  0  0  0
  8 13  1  0  0  0
  9 10  1  0  0  0
  9 28  1  0  0  0
 10 11  2  0  0  0
 10 29  1  0  0  0
 11 12  1  0  0  0
 11 24  1  0  0  0
 12 13  2  0  0  0
 12 30  1  0  0  0
 13 14  1  0  0  0
 14 15  1  0  0  0
 15 16  1  0  0  0
 15 31  1  0  0  0
 15 32  1  0  0  0
 16 17  1  0  0  0
 16 33  1  0  0  0
 16 34  1  0  0  0
 17 18  1  0  0  0
 18 19  1  0  0  0
 18 35  1  0  0  0
 18 36  1  0  0  0
 19 20  1  0  0  0
 19 37  1  0  0  0
 19 38  1  0  0  0
 20 21  1  0  0  0
 20 39  1  0  0  0
 20 46  1  0  0  0
 21 22  1  0  0  0
 21 40  1  0  0  0
 21 41  1  0  0  0
 22 23  1  0  0  0
 22 42  1  0  0  0
 22 43  1  0  0  0
 23 24  1  0  0  0
 23 44  1  0  0  0
 23 45  1  0  0  0
M  CHG  1  20   1
M  END
> <i_epik_Tot_Q>
1

> <i_epik_Tot_abs_Q>
1

> <i_f3d_flags>
0

> <i_lp_mmshare_version>
64135

> <i_m_source_file_index>
1

> <b_lp_Chiralities_Consistent>
1

> <r_epik_Charging_Adjusted_Penalty>
0.0104747

> <r_epik_Ionization_Penalty>
0.0104896

> <r_epik_Ionization_Penalty_Charging>
0.00400468

> <r_epik_Ionization_Penalty_Neutral>
0.00648492

> <r_epik_State_Penalty>
0.00647002

> <r_lp_Energy>
33.3419

> <r_lp_tautomer_probability>
1

> <s_epik_cmdline>
J2VwaWtfcHl0aG9uJywgJy1waCcsICc3LjAnLCAnLXRuJywgJzgnLCAnLW1hJywgJzIwMCcsICctaW1hZScsICc8aW5maWxlLm1hZT4nLCAnLW9tYWUnLCAnPG91dGZpbGUubWFlPic=

> <s_epik_input>
W2NIXTFbY0hdbltjSF1jKGMxMilPYzNjNE4yW0NIMl1bQ0gyXU9bQ0gyXVtDSDJdW05IXVtDSDJdW0NIMl1bQ0gyXU9jKFtjSF00KVtjSF1bY0hdMw==

> <s_lp_Force_Field>
OPLS_2005

> <s_lp_Variant>
MCD00012-1

> <s_m_source_file>
MCD00012.smi

$$$$
MCD00012
                    3D
 Schrodinger Suite 2023-4.
 47 50  0  0  1  0            999 V2000
   -4.8632   -1.5785    0.6289 C   0  0  0  0  0  0
   -3.9702   -0.6568    0.0457 C   0  0  0  0  0  0
   -2.6409   -0.5601    0.5360 C   0  0  0  0  0  0
   -2.2681   -1.3982    1.6159 C   0  0  0  0  0  0
   -3.2067   -2.3002    2.1567 C   0  0  0  0  0  0
   -4.4554   -2.3597    1.6501 N   0  3  0  0  0  0
   -1.0054   -1.3606    2.1489 O   0  0  0  0  0  0
   -0.1264   -0.4021    1.7073 C   0  0  0  0  0  0
    1.1391   -0.2701    2.3095 C   0  0  0  0  0  0
    2.0746    0.6832    1.8651 C   0  0  0  0  0  0
    1.7665    1.5565    0.7925 C   0  0  0  0  0  0
    0.4906    1.5139    0.1901 C   0  0  0  0  0  0
   -0.3855    0.5031    0.6533 C   0  0  0  0  0  0
   -1.6675    0.3287    0.0302 N   0  0  0  0  0  0
   -1.7620    0.7231   -1.3903 C   0  0  0  0  0  0
   -1.0669   -0.2613   -2.3518 C   0  0  0  0  0  0
    0.3288   -0.2142   -2.1227 O   0  0  0  0  0  0
    1.1355   -0.7109   -3.1719 C   0  0  0  0  0  0
    2.5813   -0.7150   -2.6604 C   0  0  0  0  0  0
    2.9934    0.6340   -2.2181 N   0  3  0  0  0  0
    4.3458    0.6913   -1.6291 C   0  0  0  0  0  0
    4.6500    2.0720   -1.0219 C   0  0  0  0  0  0
    4.0481    2.2968    0.3771 C   0  0  0  0  0  0
    2.6377    2.4999    0.2879 O   0  0  0  0  0  0
   -5.8887   -1.7077    0.3141 H   0  0  0  0  0  0
   -4.3442   -0.0359   -0.7520 H   0  0  0  0  0  0
   -2.9955   -2.9708    2.9767 H   0  0  0  0  0  0
    1.4024   -0.9214    3.1302 H   0  0  0  0  0  0
    3.0169    0.7330    2.3871 H   0  0  0  0  0  0
    0.2664    2.2110   -0.6002 H   0  0  0  0  0  0
   -2.7987    0.8050   -1.7007 H   0  0  0  0  0  0
   -1.4036    1.7352   -1.5584 H   0  0  0  0  0  0
   -1.4377   -1.2789   -2.2222 H   0  0  0  0  0  0
   -1.2852    0.0379   -3.3783 H   0  0  0  0  0  0
    0.8275   -1.7215   -3.4438 H   0  0  0  0  0  0
    1.0363   -0.0792   -4.0559 H   0  0  0  0  0  0
    2.6688   -1.4085   -1.8231 H   0  0  0  0  0  0
    3.2560   -1.0647   -3.4426 H   0  0  0  0  0  0
    2.9499    1.2678   -3.0033 H   0  0  0  0  0  0
    4.4603   -0.0849   -0.8712 H   0  0  0  0  0  0
    5.0655    0.4717   -2.4185 H   0  0  0  0  0  0
    5.7329    2.1600   -0.9279 H   0  0  0  0  0  0
    4.3467    2.8688   -1.7023 H   0  0  0  0  0  0
    4.3687    1.4893    1.0303 H   0  0  0  0  0  0
    4.4720    3.2067    0.8023 H   0  0  0  0  0  0
    2.3342    0.9442   -1.5179 H   0  0  0  0  0  0
   -5.1190   -3.0182    2.0591 H   0  0  0  0  0  0
  1  2  2  0  0  0
  1  6  1  0  0  0
  1 25  1  0  0  0
  2  3  1  0  0  0
  2 26  1  0  0  0
  3  4  2  0  0  0
  3 14  1  0  0  0
  4  5  1  0  0  0
  4  7  1  0  0  0
  5  6  2  0  0  0
  5 27  1  0  0  0
  6 47  1  0  0  0
  7  8  1  0  0  0
  8  9  2  0  0  0
  8 13  1  0  0  0
  9 10  1  0  0  0
  9 28  1  0  0  0
 10 11  2  0  0  0
 10 29  1  0  0  0
 11 12  1  0  0  0
 11 24  1  0  0  0
 12 13  2  0  0  0
 12 30  1  0  0  0
 13 14  1  0  0  0
 14 15  1  0  0  0
 15 16  1  0  0  0
 15 31  1  0  0  0
 15 32  1  0  0  0
 16 17  1  0  0  0
 16 33  1  0  0  0
 16 34  1  0  0  0
 17 18  1  0  0  0
 18 19  1  0  0  0
 18 35  1  0  0  0
 18 36  1  0  0  0
 19 20  1  0  0  0
 19 37  1  0  0  0
 19 38  1  0  0  0
 20 21  1  0  0  0
 20 39  1  0  0  0
 20 46  1  0  0  0
 21 22  1  0  0  0
 21 40  1  0  0  0
 21 41  1  0  0  0
 22 23  1  0  0  0
 22 42  1  0  0  0
 22 43  1  0  0  0
 23 24  1  0  0  0
 23 44  1  0  0  0
 23 45  1  0  0  0
M  CHG  2   6   1  20   1
M  END
> <i_epik_Tot_Q>
2

> <i_epik_Tot_abs_Q>
2

> <i_f3d_flags>
0

> <i_lp_mmshare_version>
64135

> <i_m_source_file_index>
1

> <b_lp_Chiralities_Consistent>
1

> <r_epik_Charging_Adjusted_Penalty>
5.36316

> <r_epik_Ionization_Penalty>
2.68358

> <r_epik_Ionization_Penalty_Charging>
2.68358

> <r_epik_Ionization_Penalty_Neutral>
1.5843e-09

> <r_epik_State_Penalty>
2.67958

> <r_lp_Energy>
44.5487

> <r_lp_tautomer_probability>
1

> <s_epik_cmdline>
J2VwaWtfcHl0aG9uJywgJy1waCcsICc3LjAnLCAnLXRuJywgJzgnLCAnLW1hJywgJzIwMCcsICctaW1hZScsICc8aW5maWxlLm1hZT4nLCAnLW9tYWUnLCAnPG91dGZpbGUubWFlPic=

> <s_epik_input>
W2NIXTFbY0hdbltjSF1jKGMxMilPYzNjNE4yW0NIMl1bQ0gyXU9bQ0gyXVtDSDJdW05IXVtDSDJdW0NIMl1bQ0gyXU9jKFtjSF00KVtjSF1bY0hdMw==

> <s_lp_Force_Field>
OPLS_2005

> <s_lp_Variant>
MCD00012-2

> <s_m_source_file>
MCD00012.smi

$$$$
MCD00013
                    3D
 Schrodinger Suite 2023-4.
 46 49  0  0  1  0            999 V2000
   -0.0504   -0.0696   -0.0502 C   0  0  0  0  0  0
    1.4824   -0.0301    0.0426 C   0  0  1  0  0  0
    1.9873    0.6522    1.3307 C   0  0  0  0  0  0
    1.4805   -0.0580    2.5240 N   0  3  0  0  0  0
    2.0434    0.3474    3.8321 C   0  0  0  0  0  0
    3.5327    0.1341    3.9831 C   0  0  0  0  0  0
    4.5970    0.9206    4.4526 C   0  0  0  0  0  0
    5.7146    0.2062    4.4113 N   0  0  0  0  0  0
    5.3246   -1.0359    3.8969 N   0  0  0  0  0  0
    6.1590   -2.0862    3.6564 C   0  0  0  0  0  0
    5.6117   -3.2192    3.0862 C   0  0  0  0  0  0
    4.2143   -3.2368    2.7806 C   0  0  0  0  0  0
    3.4003   -2.2234    3.0765 N   0  0  0  0  0  0
    3.9746   -1.1344    3.6218 C   0  0  0  0  0  0
    3.6398   -4.2805    2.0678 N   0  0  0  0  0  0
    4.2255   -5.6080    2.2036 C   0  0  0  0  0  0
    2.9902   -3.9266    0.7995 C   0  0  0  0  0  0
    3.7725   -2.9438   -0.0737 C   0  0  0  0  0  0
    5.0631   -3.3125   -0.5114 C   0  0  0  0  0  0
    5.8508   -2.4161   -1.2526 C   0  0  0  0  0  0
    7.0909   -2.7768   -1.6587 F   0  0  0  0  0  0
    5.3496   -1.1416   -1.5627 C   0  0  0  0  0  0
    4.0590   -0.7690   -1.1436 C   0  0  0  0  0  0
    3.2463   -1.6668   -0.4027 C   0  0  0  0  0  0
    1.9558   -1.3783    0.0023 O   0  0  0  0  0  0
   -0.4735    0.9336    0.0077 H   0  0  0  0  0  0
   -0.4919   -0.6674    0.7475 H   0  0  0  0  0  0
   -0.3672   -0.5066   -0.9976 H   0  0  0  0  0  0
    1.8040    0.5441   -0.8231 H   0  0  0  0  0  0
    3.0774    0.6637    1.3357 H   0  0  0  0  0  0
    1.6593    1.6914    1.3675 H   0  0  0  0  0  0
    0.4775    0.0561    2.5579 H   0  0  0  0  0  0
    1.7998    1.3974    3.9969 H   0  0  0  0  0  0
    1.5129   -0.2078    4.6064 H   0  0  0  0  0  0
    4.5921    1.9365    4.8194 H   0  0  0  0  0  0
    7.2118   -1.9686    3.8919 H   0  0  0  0  0  0
    6.2616   -4.0500    2.8324 H   0  0  0  0  0  0
    4.4970   -5.8123    3.2400 H   0  0  0  0  0  0
    5.1170   -5.7072    1.5840 H   0  0  0  0  0  0
    3.5100   -6.3697    1.8930 H   0  0  0  0  0  0
    2.8274   -4.8334    0.2161 H   0  0  0  0  0  0
    1.9962   -3.5402    1.0227 H   0  0  0  0  0  0
    5.4626   -4.2842   -0.2626 H   0  0  0  0  0  0
    5.9539   -0.4487   -2.1294 H   0  0  0  0  0  0
    3.7261    0.2167   -1.4230 H   0  0  0  0  0  0
    1.6819   -1.0412    2.4026 H   0  0  0  0  0  0
  1  2  1  0  0  0
  1 26  1  0  0  0
  1 27  1  0  0  0
  1 28  1  0  0  0
  2  3  1  0  0  0
  2 25  1  0  0  0
  2 29  1  0  0  0
  3  4  1  0  0  0
  3 30  1  0  0  0
  3 31  1  0  0  0
  4  5  1  0  0  0
  4 32  1  0  0  0
  4 46  1  0  0  0
  5  6  1  0  0  0
  5 33  1  0  0  0
  5 34  1  0  0  0
  6  7  1  0  0  0
  6 14  2  0  0  0
  7  8  2  0  0  0
  7 35  1  0  0  0
  8  9  1  0  0  0
  9 10  1  0  0  0
  9 14  1  0  0  0
 10 11  2  0  0  0
 10 36  1  0  0  0
 11 12  1  0  0  0
 11 37  1  0  0  0
 12 13  2  0  0  0
 12 15  1  0  0  0
 13 14  1  0  0  0
 15 16  1  0  0  0
 15 17  1  0  0  0
 16 38  1  0  0  0
 16 39  1  0  0  0
 16 40  1  0  0  0
 17 18  1  0  0  0
 17 41  1  0  0  0
 17 42  1  0  0  0
 18 19  2  0  0  0
 18 24  1  0  0  0
 19 20  1  0  0  0
 19 43  1  0  0  0
 20 21  1  0  0  0
 20 22  2  0  0  0
 22 23  1  0  0  0
 22 44  1  0  0  0
 23 24  2  0  0  0
 23 45  1  0  0  0
 24 25  1  0  0  0
M  CHG  1   4   1
M  END
> <i_epik_Tot_Q>
1

> <i_epik_Tot_abs_Q>
1

> <i_f3d_flags>
0

> <i_lp_mmshare_version>
64135

> <i_m_source_file_index>
1

> <b_lp_Chiralities_Consistent>
1

> <r_epik_Charging_Adjusted_Penalty>
0.0874625

> <r_epik_Ionization_Penalty>
0.0437315

> <r_epik_Ionization_Penalty_Charging>
0.0437312

> <r_epik_Ionization_Penalty_Neutral>
2.6359e-07

> <r_epik_State_Penalty>
0.0437312

> <r_lp_Energy>
46.1723

> <r_lp_tautomer_probability>
1

> <s_epik_cmdline>
J2VwaWtfcHl0aG9uJywgJy1waCcsICc3LjAnLCAnLXRuJywgJzgnLCAnLW1hJywgJzIwMCcsICctaW1hZScsICc8aW5maWxlLm1hZT4nLCAnLW9tYWUnLCAnPG91dGZpbGUubWFlPic=

> <s_epik_input>
W0NIMl0xW05IXVtDSDJdW0NASF0oW0NIM10pT2MoW2NIXVtjSF1jKEYpW2NIXTIpYzJbQ0gyXU4oW0NIM10pYyhuMylbY0hdW2NIXW4oYzNjMTQpbltjSF00

> <s_lp_Force_Field>
OPLS_2005

> <s_lp_Variant>
MCD00013-1

> <s_m_source_file>
MCD00013.smi

$$$$
MCD00013
                    3D
 Schrodinger Suite 2023-4.
 45 48  0  0  1  0            999 V2000
   -0.1829   -0.1556    0.2288 C   0  0  0  0  0  0
    1.3466   -0.0891    0.1264 C   0  0  1  0  0  0
    1.9882    0.5355    1.3738 C   0  0  0  0  0  0
    3.4052    0.7015    1.0928 N   0  0  1  0  0  0
    4.2270    0.6864    2.2926 C   0  0  0  0  0  0
    5.6860    0.3589    2.1400 C   0  0  0  0  0  0
    6.9025    0.9960    2.4295 C   0  0  0  0  0  0
    7.9004    0.1985    2.0649 N   0  0  0  0  0  0
    7.2738   -0.9435    1.5471 N   0  0  0  0  0  0
    7.9096   -2.0380    1.0447 C   0  0  0  0  0  0
    7.1263   -3.0760    0.5758 C   0  0  0  0  0  0
    5.6974   -2.9658    0.6333 C   0  0  0  0  0  0
    5.0982   -1.8814    1.1289 N   0  0  0  0  0  0
    5.8962   -0.8925    1.5765 C   0  0  0  0  0  0
    4.8701   -4.0012    0.1927 N   0  0  0  0  0  0
    5.4566   -5.2896   -0.1608 C   0  0  0  0  0  0
    3.4188   -3.8214    0.0643 C   0  0  0  0  0  0
    2.9628   -3.1399   -1.2231 C   0  0  0  0  0  0
    3.3169   -3.7234   -2.4592 C   0  0  0  0  0  0
    2.8837   -3.1555   -3.6697 C   0  0  0  0  0  0
    3.2302   -3.7237   -4.8488 F   0  0  0  0  0  0
    2.0798   -2.0039   -3.6521 C   0  0  0  0  0  0
    1.7197   -1.4154   -2.4259 C   0  0  0  0  0  0
    2.1681   -1.9643   -1.1967 C   0  0  0  0  0  0
    1.8622   -1.4194    0.0346 O   0  0  0  0  0  0
   -0.6119    0.8418    0.3267 H   0  0  0  0  0  0
   -0.4938   -0.7401    1.0952 H   0  0  0  0  0  0
   -0.6184   -0.6177   -0.6570 H   0  0  0  0  0  0
    1.6275    0.5339   -0.7232 H   0  0  0  0  0  0
    1.5509    1.5054    1.6120 H   0  0  0  0  0  0
    1.8222   -0.1222    2.2279 H   0  0  0  0  0  0
    3.7142   -0.0429    0.4829 H   0  0  0  0  0  0
    4.1147    1.6552    2.7801 H   0  0  0  0  0  0
    3.8037   -0.0357    2.9924 H   0  0  0  0  0  0
    7.0854    1.9652    2.8696 H   0  0  0  0  0  0
    8.9947   -2.0408    1.0385 H   0  0  0  0  0  0
    7.6194   -3.9538    0.1733 H   0  0  0  0  0  0
    6.0511   -5.6828    0.6644 H   0  0  0  0  0  0
    6.0951   -5.1918   -1.0393 H   0  0  0  0  0  0
    4.6871   -6.0257   -0.3937 H   0  0  0  0  0  0
    2.9422   -4.8015    0.0922 H   0  0  0  0  0  0
    3.0263   -3.3069    0.9411 H   0  0  0  0  0  0
    3.9189   -4.6194   -2.4834 H   0  0  0  0  0  0
    1.7340   -1.5723   -4.5796 H   0  0  0  0  0  0
    1.0852   -0.5438   -2.4608 H   0  0  0  0  0  0
  1  2  1  0  0  0
  1 26  1  0  0  0
  1 27  1  0  0  0
  1 28  1  0  0  0
  2  3  1  0  0  0
  2 25  1  0  0  0
  2 29  1  0  0  0
  3  4  1  0  0  0
  3 30  1  0  0  0
  3 31  1  0  0  0
  4  5  1  0  0  0
  4 32  1  0  0  0
  5  6  1  0  0  0
  5 33  1  0  0  0
  5 34  1  0  0  0
  6  7  1  0  0  0
  6 14  2  0  0  0
  7  8  2  0  0  0
  7 35  1  0  0  0
  8  9  1  0  0  0
  9 10  1  0  0  0
  9 14  1  0  0  0
 10 11  2  0  0  0
 10 36  1  0  0  0
 11 12  1  0  0  0
 11 37  1  0  0  0
 12 13  2  0  0  0
 12 15  1  0  0  0
 13 14  1  0  0  0
 15 16  1  0  0  0
 15 17  1  0  0  0
 16 38  1  0  0  0
 16 39  1  0  0  0
 16 40  1  0  0  0
 17 18  1  0  0  0
 17 41  1  0  0  0
 17 42  1  0  0  0
 18 19  2  0  0  0
 18 24  1  0  0  0
 19 20  1  0  0  0
 19 43  1  0  0  0
 20 21  1  0  0  0
 20 22  2  0  0  0
 22 23  1  0  0  0
 22 44  1  0  0  0
 23 24  2  0  0  0
 23 45  1  0  0  0
 24 25  1  0  0  0
M  END
> <i_epik_Tot_Q>
0

> <i_epik_Tot_abs_Q>
0

> <i_f3d_flags>
0

> <i_lp_mmshare_version>
64135

> <i_m_source_file_index>
1

> <b_lp_Chiralities_Consistent>
1

> <r_epik_Charging_Adjusted_Penalty>
1.56591

> <r_epik_Ionization_Penalty>
1.56591

> <r_epik_Ionization_Penalty_Charging>
0

> <r_epik_Ionization_Penalty_Neutral>
1.56591

> <r_epik_State_Penalty>
1.56591

> <r_lp_Energy>
47.8171

> <r_lp_tautomer_probability>
1

> <s_epik_cmdline>
J2VwaWtfcHl0aG9uJywgJy1waCcsICc3LjAnLCAnLXRuJywgJzgnLCAnLW1hJywgJzIwMCcsICctaW1hZScsICc8aW5maWxlLm1hZT4nLCAnLW9tYWUnLCAnPG91dGZpbGUubWFlPic=

> <s_epik_input>
W0NIMl0xW05IXVtDSDJdW0NASF0oW0NIM10pT2MoW2NIXVtjSF1jKEYpW2NIXTIpYzJbQ0gyXU4oW0NIM10pYyhuMylbY0hdW2NIXW4oYzNjMTQpbltjSF00

> <s_lp_Force_Field>
OPLS_2005

> <s_lp_Variant>
MCD00013-2

> <s_m_source_file>
MCD00013.smi

$$$$
MCD00014
                    3D
 Schrodinger Suite 2023-4.
 51 54  0  0  1  0            999 V2000
   -1.6777    1.2639    4.7228 C   0  0  0  0  0  0
   -1.8864    1.4199    3.3378 C   0  0  0  0  0  0
   -1.2857    0.4937    2.4505 C   0  0  0  0  0  0
   -0.5272   -0.5584    3.0117 C   0  0  0  0  0  0
   -0.3810   -0.6207    4.4119 C   0  0  0  0  0  0
   -0.9374    0.2711    5.2573 N   0  0  0  0  0  0
    0.0673   -1.5118    2.2241 O   0  0  0  0  0  0
   -0.2434   -1.5471    0.8854 C   0  0  0  0  0  0
    0.2017   -2.6105    0.0766 C   0  0  0  0  0  0
   -0.0593   -2.6422   -1.3067 C   0  0  0  0  0  0
   -0.7957   -1.6045   -1.9282 C   0  0  0  0  0  0
   -1.3500   -0.5609   -1.1560 C   0  0  0  0  0  0
   -0.9966   -0.5584    0.2115 C   0  0  0  0  0  0
   -1.4091    0.5300    1.0463 N   0  0  0  0  0  0
   -1.6679    1.8274    0.3870 C   0  0  0  0  0  0
   -0.4923    2.3939   -0.4423 C   0  0  0  0  0  0
    0.8356    2.5718    0.3196 C   0  0  0  0  0  0
    2.0083    2.8035   -0.6473 C   0  0  0  0  0  0
    2.3016    1.5587   -1.3866 N   0  3  0  0  0  0
    2.9399    1.7277   -2.7081 C   0  0  0  0  0  0
    2.9475    0.3895   -3.4660 C   0  0  0  0  0  0
    1.5374   -0.0724   -3.8922 C   0  0  0  0  0  0
    1.4129   -1.6042   -3.9818 C   0  0  0  0  0  0
   -0.0341   -2.1190   -4.1703 C   0  0  0  0  0  0
   -0.9900   -1.5231   -3.2902 O   0  0  0  0  0  0
   -2.1252    1.9547    5.4219 H   0  0  0  0  0  0
   -2.5169    2.2275    3.0017 H   0  0  0  0  0  0
    0.1982   -1.4112    4.8656 H   0  0  0  0  0  0
    0.7783   -3.4076    0.5226 H   0  0  0  0  0  0
    0.3325   -3.4662   -1.8834 H   0  0  0  0  0  0
   -1.9421    0.2067   -1.6301 H   0  0  0  0  0  0
   -2.5557    1.7348   -0.2388 H   0  0  0  0  0  0
   -1.9287    2.5986    1.1053 H   0  0  0  0  0  0
   -0.3264    1.7811   -1.3246 H   0  0  0  0  0  0
   -0.7920    3.3631   -0.8429 H   0  0  0  0  0  0
    0.7449    3.4137    1.0067 H   0  0  0  0  0  0
    1.0511    1.6980    0.9356 H   0  0  0  0  0  0
    1.7572    3.6108   -1.3367 H   0  0  0  0  0  0
    2.9036    3.1107   -0.1058 H   0  0  0  0  0  0
    2.8683    0.9534   -0.8098 H   0  0  0  0  0  0
    2.4080    2.4801   -3.2922 H   0  0  0  0  0  0
    3.9586    2.0893   -2.5633 H   0  0  0  0  0  0
    3.5795    0.4672   -4.3513 H   0  0  0  0  0  0
    3.4176   -0.3621   -2.8301 H   0  0  0  0  0  0
    0.8086    0.2926   -3.1704 H   0  0  0  0  0  0
    1.2626    0.3876   -4.8418 H   0  0  0  0  0  0
    2.0335   -1.9721   -4.7996 H   0  0  0  0  0  0
    1.8368   -2.0458   -3.0811 H   0  0  0  0  0  0
   -0.3575   -1.8854   -5.1849 H   0  0  0  0  0  0
   -0.0722   -3.2059   -4.0926 H   0  0  0  0  0  0
    1.4165    1.1002   -1.5502 H   0  0  0  0  0  0
  1  2  2  0  0  0
  1  6  1  0  0  0
  1 26  1  0  0  0
  2  3  1  0  0  0
  2 27  1  0  0  0
  3  4  2  0  0  0
  3 14  1  0  0  0
  4  5  1  0  0  0
  4  7  1  0  0  0
  5  6  2  0  0  0
  5 28  1  0  0  0
  7  8  1  0  0  0
  8  9  2  0  0  0
  8 13  1  0  0  0
  9 10  1  0  0  0
  9 29  1  0  0  0
 10 11  2  0  0  0
 10 30  1  0  0  0
 11 12  1  0  0  0
 11 25  1  0  0  0
 12 13  2  0  0  0
 12 31  1  0  0  0
 13 14  1  0  0  0
 14 15  1  0  0  0
 15 16  1  0  0  0
 15 32  1  0  0  0
 15 33  1  0  0  0
 16 17  1  0  0  0
 16 34  1  0  0  0
 16 35  1  0  0  0
 17 18  1  0  0  0
 17 36  1  0  0  0
 17 37  1  0  0  0
 18 19  1  0  0  0
 18 38  1  0  0  0
 18 39  1  0  0  0
 19 20  1  0  0  0
 19 40  1  0  0  0
 19 51  1  0  0  0
 20 21  1  0  0  0
 20 41  1  0  0  0
 20 42  1  0  0  0
 21 22  1  0  0  0
 21 43  1  0  0  0
 21 44  1  0  0  0
 22 23  1  0  0  0
 22 45  1  0  0  0
 22 46  1  0  0  0
 23 24  1  0  0  0
 23 47  1  0  0  0
 23 48  1  0  0  0
 24 25  1  0  0  0
 24 49  1  0  0  0
 24 50  1  0  0  0
M  CHG  1  19   1
M  END
> <i_epik_Tot_Q>
1

> <i_epik_Tot_abs_Q>
1

> <i_f3d_flags>
0

> <i_lp_mmshare_version>
64135

> <i_m_source_file_index>
1

> <b_lp_Chiralities_Consistent>
1

> <r_epik_Charging_Adjusted_Penalty>
0.000362526

> <r_epik_Ionization_Penalty>
0.00492996

> <r_epik_Ionization_Penalty_Charging>
0.000362526

> <r_epik_Ionization_Penalty_Neutral>
0.00456744

> <r_epik_State_Penalty>
-0

> <r_lp_Energy>
38.3347

> <r_lp_tautomer_probability>
1

> <s_epik_cmdline>
J2VwaWtfcHl0aG9uJywgJy1waCcsICc3LjAnLCAnLXRuJywgJzgnLCAnLW1hJywgJzIwMCcsICctaW1hZScsICc8aW5maWxlLm1hZT4nLCAnLW9tYWUnLCAnPG91dGZpbGUubWFlPic=

> <s_epik_input>
W2NIXTFbY0hdbltjSF1jKGMxMilPYzNjNE4yW0NIMl1bQ0gyXVtDSDJdW0NIMl1bTkhdW0NIMl1bQ0gyXVtDSDJdW0NIMl1bQ0gyXU9jKFtjSF00KVtjSF1bY0hdMw==

> <s_lp_Force_Field>
OPLS_2005

> <s_lp_Variant>
MCD00014-1

> <s_m_source_file>
MCD00014.smi

$$$$
MCD00015
                    3D
 Schrodinger Suite 2023-4.
 51 54  0  0  1  0            999 V2000
    3.6458    0.5534    3.9699 C   0  0  0  0  0  0
    2.3442    0.2368    3.5326 C   0  0  0  0  0  0
    1.9485    0.6280    2.2298 C   0  0  0  0  0  0
    2.8882    1.3304    1.4405 C   0  0  0  0  0  0
    4.1653    1.5933    1.9759 C   0  0  0  0  0  0
    4.5454    1.2150    3.2135 N   0  0  0  0  0  0
    2.5897    1.7527    0.1691 O   0  0  0  0  0  0
    1.3198    1.5500   -0.3159 C   0  0  0  0  0  0
    0.9600    2.0155   -1.5974 C   0  0  0  0  0  0
   -0.3262    1.7985   -2.1323 C   0  0  0  0  0  0
   -1.3098    1.1122   -1.3799 C   0  0  0  0  0  0
   -1.0263    0.6679   -0.0742 C   0  0  0  0  0  0
    0.2931    0.8774    0.3847 C   0  0  0  0  0  0
    0.6787    0.3734    1.6713 N   0  0  0  0  0  0
   -0.0436   -0.8299    2.1269 C   0  0  0  0  0  0
    0.3552   -2.0949    1.3369 C   0  0  0  0  0  0
   -0.7300   -3.1915    1.3118 C   0  0  0  0  0  0
   -1.9778   -2.8589    0.4628 C   0  0  0  0  0  0
   -1.6900   -2.7304   -1.0437 C   0  0  0  0  0  0
   -2.8644   -2.2433   -1.7974 N   0  3  0  0  0  0
   -2.5701   -2.0064   -3.2262 C   0  0  0  0  0  0
   -3.7217   -1.3114   -3.9775 C   0  0  0  0  0  0
   -4.1058    0.1068   -3.4979 C   0  0  0  0  0  0
   -2.9211    1.0396   -3.1908 C   0  0  0  0  0  0
   -2.5752    0.8160   -1.8312 O   0  0  0  0  0  0
    3.9715    0.2708    4.9601 H   0  0  0  0  0  0
    1.6875   -0.2782    4.2148 H   0  0  0  0  0  0
    4.9036    2.1228    1.3918 H   0  0  0  0  0  0
    1.6936    2.5417   -2.1903 H   0  0  0  0  0  0
   -0.5362    2.1720   -3.1228 H   0  0  0  0  0  0
   -1.8093    0.1859    0.4839 H   0  0  0  0  0  0
    0.1245   -1.0247    3.1822 H   0  0  0  0  0  0
   -1.1167   -0.6705    2.1134 H   0  0  0  0  0  0
    0.6446   -1.8429    0.3184 H   0  0  0  0  0  0
    1.2618   -2.5014    1.7865 H   0  0  0  0  0  0
   -0.2883   -4.1150    0.9356 H   0  0  0  0  0  0
   -1.0390   -3.4068    2.3355 H   0  0  0  0  0  0
   -2.7184   -3.6460    0.6087 H   0  0  0  0  0  0
   -2.4465   -1.9488    0.8340 H   0  0  0  0  0  0
   -0.8769   -2.0271   -1.2157 H   0  0  0  0  0  0
   -1.3688   -3.6909   -1.4485 H   0  0  0  0  0  0
   -3.6178   -2.9108   -1.7162 H   0  0  0  0  0  0
   -1.6579   -1.4164   -3.3207 H   0  0  0  0  0  0
   -2.3601   -2.9677   -3.6966 H   0  0  0  0  0  0
   -3.4321   -1.2436   -5.0268 H   0  0  0  0  0  0
   -4.6080   -1.9467   -3.9605 H   0  0  0  0  0  0
   -4.7193    0.5644   -4.2749 H   0  0  0  0  0  0
   -4.7513    0.0407   -2.6211 H   0  0  0  0  0  0
   -2.1065    0.8425   -3.8884 H   0  0  0  0  0  0
   -3.2155    2.0833   -3.3063 H   0  0  0  0  0  0
   -3.1585   -1.3671   -1.3893 H   0  0  0  0  0  0
  1  2  2  0  0  0
  1  6  1  0  0  0
  1 26  1  0  0  0
  2  3  1  0  0  0
  2 27  1  0  0  0
  3  4  2  0  0  0
  3 14  1  0  0  0
  4  5  1  0  0  0
  4  7  1  0  0  0
  5  6  2  0  0  0
  5 28  1  0  0  0
  7  8  1  0  0  0
  8  9  2  0  0  0
  8 13  1  0  0  0
  9 10  1  0  0  0
  9 29  1  0  0  0
 10 11  2  0  0  0
 10 30  1  0  0  0
 11 12  1  0  0  0
 11 25  1  0  0  0
 12 13  2  0  0  0
 12 31  1  0  0  0
 13 14  1  0  0  0
 14 15  1  0  0  0
 15 16  1  0  0  0
 15 32  1  0  0  0
 15 33  1  0  0  0
 16 17  1  0  0  0
 16 34  1  0  0  0
 16 35  1  0  0  0
 17 18  1  0  0  0
 17 36  1  0  0  0
 17 37  1  0  0  0
 18 19  1  0  0  0
 18 38  1  0  0  0
 18 39  1  0  0  0
 19 20  1  0  0  0
 19 40  1  0  0  0
 19 41  1  0  0  0
 20 21  1  0  0  0
 20 42  1  0  0  0
 20 51  1  0  0  0
 21 22  1  0  0  0
 21 43  1  0  0  0
 21 44  1  0  0  0
 22 23  1  0  0  0
 22 45  1  0  0  0
 22 46  1  0  0  0
 23 24  1  0  0  0
 23 47  1  0  0  0
 23 48  1  0  0  0
 24 25  1  0  0  0
 24 49  1  0  0  0
 24 50  1  0  0  0
M  CHG  1  20   1
M  END
> <i_epik_Tot_Q>
1

> <i_epik_Tot_abs_Q>
1

> <i_f3d_flags>
0

> <i_lp_mmshare_version>
64135

> <i_m_source_file_index>
1

> <b_lp_Chiralities_Consistent>
1

> <r_epik_Charging_Adjusted_Penalty>
0.000435765

> <r_epik_Ionization_Penalty>
0.00561509

> <r_epik_Ionization_Penalty_Charging>
0.000435765

> <r_epik_Ionization_Penalty_Neutral>
0.00517933

> <r_epik_State_Penalty>
-0

> <r_lp_Energy>
35.5451

> <r_lp_tautomer_probability>
1

> <s_epik_cmdline>
J2VwaWtfcHl0aG9uJywgJy1waCcsICc3LjAnLCAnLXRuJywgJzgnLCAnLW1hJywgJzIwMCcsICctaW1hZScsICc8aW5maWxlLm1hZT4nLCAnLW9tYWUnLCAnPG91dGZpbGUubWFlPic=

> <s_epik_input>
W2NIXTFbY0hdbltjSF1jKGMxMilPYzNjNE4yW0NIMl1bQ0gyXVtDSDJdW0NIMl1bQ0gyXVtOSF1bQ0gyXVtDSDJdW0NIMl1bQ0gyXU9jKFtjSF00KVtjSF1bY0hdMw==

> <s_lp_Force_Field>
OPLS_2005

> <s_lp_Variant>
MCD00015-1

> <s_m_source_file>
MCD00015.smi

$$$$
MCD00016
                    3D
 Schrodinger Suite 2023-4.
 49 52  0  0  1  0            999 V2000
   -3.3738   -3.3147    0.1510 C   0  0  0  0  0  0
   -2.3852   -2.6213   -0.5753 C   0  0  0  0  0  0
   -1.2889   -2.0566    0.1244 C   0  0  0  0  0  0
   -1.2569   -2.2246    1.5268 C   0  0  0  0  0  0
   -2.2977   -2.9371    2.1558 C   0  0  0  0  0  0
   -3.3398   -3.4736    1.4893 N   0  0  0  0  0  0
   -0.2363   -1.7178    2.2876 O   0  0  0  0  0  0
    0.7544   -0.9904    1.6742 C   0  0  0  0  0  0
    1.7892   -0.4325    2.4475 C   0  0  0  0  0  0
    2.8086    0.3388    1.8630 C   0  0  0  0  0  0
    2.8256    0.5896    0.4772 C   0  0  0  0  0  0
    1.8394    0.0174   -0.3688 C   0  0  0  0  0  0
    0.8373   -0.7433    0.2826 C   0  0  0  0  0  0
   -0.2326   -1.3336   -0.4738 N   0  0  0  0  0  0
   -0.1076   -1.3512   -1.9425 C   0  0  0  0  0  0
   -0.5894   -0.0701   -2.6705 C   0  0  0  0  0  0
   -2.0280    0.4240   -2.3846 C   0  0  0  0  0  0
   -2.1609    1.3027   -1.1267 C   0  0  0  0  0  0
   -1.3283    2.5148   -1.2572 N   0  3  0  0  0  0
   -0.9620    3.1796    0.0086 C   0  0  0  0  0  0
    0.3605    3.9332   -0.1698 C   0  0  0  0  0  0
    1.3237    2.9623   -0.5397 O   0  0  0  0  0  0
    2.6501    3.4446   -0.6381 C   0  0  0  0  0  0
    3.5667    2.2845   -1.0692 C   0  0  0  0  0  0
    3.8406    1.4009    0.0163 O   0  0  0  0  0  0
   -4.2182   -3.7528   -0.3601 H   0  0  0  0  0  0
   -2.5039   -2.5425   -1.6435 H   0  0  0  0  0  0
   -2.2927   -3.0793    3.2264 H   0  0  0  0  0  0
    1.7950   -0.5909    3.5159 H   0  0  0  0  0  0
    3.5764    0.7653    2.4918 H   0  0  0  0  0  0
    1.8744    0.1768   -1.4314 H   0  0  0  0  0  0
    0.9278   -1.5552   -2.2153 H   0  0  0  0  0  0
   -0.6231   -2.2110   -2.3638 H   0  0  0  0  0  0
    0.1144    0.7457   -2.5201 H   0  0  0  0  0  0
   -0.5263   -0.2831   -3.7381 H   0  0  0  0  0  0
   -2.3640    1.0121   -3.2397 H   0  0  0  0  0  0
   -2.7159   -0.4178   -2.3305 H   0  0  0  0  0  0
   -3.1981    1.6035   -0.9772 H   0  0  0  0  0  0
   -1.8724    0.7377   -0.2422 H   0  0  0  0  0  0
   -0.4593    2.2151   -1.6764 H   0  0  0  0  0  0
   -1.7638    3.8525    0.3132 H   0  0  0  0  0  0
   -0.8377    2.4427    0.8036 H   0  0  0  0  0  0
    0.2771    4.7025   -0.9391 H   0  0  0  0  0  0
    0.6466    4.4191    0.7640 H   0  0  0  0  0  0
    2.6861    4.2391   -1.3846 H   0  0  0  0  0  0
    2.9832    3.8677    0.3108 H   0  0  0  0  0  0
    3.1903    1.7740   -1.9549 H   0  0  0  0  0  0
    4.5284    2.7034   -1.3652 H   0  0  0  0  0  0
   -1.7702    3.1744   -1.8814 H   0  0  0  0  0  0
  1  2  2  0  0  0
  1  6  1  0  0  0
  1 26  1  0  0  0
  2  3  1  0  0  0
  2 27  1  0  0  0
  3  4  2  0  0  0
  3 14  1  0  0  0
  4  5  1  0  0  0
  4  7  1  0  0  0
  5  6  2  0  0  0
  5 28  1  0  0  0
  7  8  1  0  0  0
  8  9  2  0  0  0
  8 13  1  0  0  0
  9 10  1  0  0  0
  9 29  1  0  0  0
 10 11  2  0  0  0
 10 30  1  0  0  0
 11 12  1  0  0  0
 11 25  1  0  0  0
 12 13  2  0  0  0
 12 31  1  0  0  0
 13 14  1  0  0  0
 14 15  1  0  0  0
 15 16  1  0  0  0
 15 32  1  0  0  0
 15 33  1  0  0  0
 16 17  1  0  0  0
 16 34  1  0  0  0
 16 35  1  0  0  0
 17 18  1  0  0  0
 17 36  1  0  0  0
 17 37  1  0  0  0
 18 19  1  0  0  0
 18 38  1  0  0  0
 18 39  1  0  0  0
 19 20  1  0  0  0
 19 40  1  0  0  0
 19 49  1  0  0  0
 20 21  1  0  0  0
 20 41  1  0  0  0
 20 42  1  0  0  0
 21 22  1  0  0  0
 21 43  1  0  0  0
 21 44  1  0  0  0
 22 23  1  0  0  0
 23 24  1  0  0  0
 23 45  1  0  0  0
 23 46  1  0  0  0
 24 25  1  0  0  0
 24 47  1  0  0  0
 24 48  1  0  0  0
M  CHG  1  19   1
M  END
> <i_epik_Tot_Q>
1

> <i_epik_Tot_abs_Q>
1

> <i_f3d_flags>
0

> <i_lp_mmshare_version>
64135

> <i_m_source_file_index>
1

> <b_lp_Chiralities_Consistent>
1

> <r_epik_Charging_Adjusted_Penalty>
0.00169569

> <r_epik_Ionization_Penalty>
0.00623729

> <r_epik_Ionization_Penalty_Charging>
0.00169569

> <r_epik_Ionization_Penalty_Neutral>
0.0045416

> <r_epik_State_Penalty>
-0

> <r_lp_Energy>
35.3813

> <r_lp_tautomer_probability>
1

> <s_epik_cmdline>
J2VwaWtfcHl0aG9uJywgJy1waCcsICc3LjAnLCAnLXRuJywgJzgnLCAnLW1hJywgJzIwMCcsICctaW1hZScsICc8aW5maWxlLm1hZT4nLCAnLW9tYWUnLCAnPG91dGZpbGUubWFlPic=

> <s_epik_input>
W2NIXTFbY0hdbltjSF1jKGMxMilPYzNjNE4yW0NIMl1bQ0gyXVtDSDJdW0NIMl1bTkhdW0NIMl1bQ0gyXU9bQ0gyXVtDSDJdT2MoW2NIXTQpW2NIXVtjSF0z

> <s_lp_Force_Field>
OPLS_2005

> <s_lp_Variant>
MCD00016-1

> <s_m_source_file>
MCD00016.smi

$$$$
MCD00017
                    3D
 Schrodinger Suite 2023-4.
 49 52  0  0  1  0            999 V2000
    1.7304    4.5083   -2.2185 C   0  0  0  0  0  0
    2.0014    3.1914   -1.7959 C   0  0  0  0  0  0
    0.9136    2.3528   -1.4599 C   0  0  0  0  0  0
   -0.3934    2.8746   -1.5793 C   0  0  0  0  0  0
   -0.5523    4.2072   -2.0096 C   0  0  0  0  0  0
    0.4833    5.0145   -2.3223 N   0  0  0  0  0  0
   -1.4941    2.1126   -1.2745 O   0  0  0  0  0  0
   -1.3169    0.7638   -1.0714 C   0  0  0  0  0  0
   -2.4215   -0.1009   -0.9621 C   0  0  0  0  0  0
   -2.2504   -1.4816   -0.7464 C   0  0  0  0  0  0
   -0.9661   -2.0582   -0.6484 C   0  0  0  0  0  0
    0.1918   -1.2461   -0.7783 C   0  0  0  0  0  0
   -0.0580    0.1333   -0.9508 C   0  0  0  0  0  0
    1.0568    1.0221   -1.0250 N   0  0  0  0  0  0
    2.0903    0.7977    0.0019 C   0  0  0  0  0  0
    1.5868    1.0567    1.4356 C   0  0  0  0  0  0
    1.0437   -0.1469    1.9469 O   0  0  0  0  0  0
    0.3453    0.0022    3.1710 C   0  0  0  0  0  0
   -0.0811   -1.3995    3.6222 C   0  0  0  0  0  0
   -0.9802   -2.0058    2.6177 N   0  3  0  0  0  0
   -1.1525   -3.4739    2.6887 C   0  0  0  0  0  0
    0.1399   -4.2675    2.3907 C   0  0  0  0  0  0
    0.9515   -3.8074    1.1602 C   0  0  0  0  0  0
    0.3029   -4.0857   -0.2118 C   0  0  0  0  0  0
   -0.9390   -3.4167   -0.4078 O   0  0  0  0  0  0
    2.5391    5.1725   -2.4850 H   0  0  0  0  0  0
    3.0235    2.8471   -1.7544 H   0  0  0  0  0  0
   -1.5386    4.6368   -2.1055 H   0  0  0  0  0  0
   -3.4203    0.3031   -1.0392 H   0  0  0  0  0  0
   -3.1232   -2.1112   -0.6531 H   0  0  0  0  0  0
    1.1901   -1.6502   -0.7366 H   0  0  0  0  0  0
    2.5318   -0.1944   -0.0773 H   0  0  0  0  0  0
    2.9327    1.4636   -0.1713 H   0  0  0  0  0  0
    2.4214    1.3511    2.0731 H   0  0  0  0  0  0
    0.8597    1.8707    1.4564 H   0  0  0  0  0  0
    0.9930    0.4577    3.9214 H   0  0  0  0  0  0
   -0.5225    0.6503    3.0388 H   0  0  0  0  0  0
    0.8128   -2.0064    3.7613 H   0  0  0  0  0  0
   -0.5930   -1.3580    4.5840 H   0  0  0  0  0  0
   -1.8866   -1.5671    2.6964 H   0  0  0  0  0  0
   -1.5440   -3.7458    3.6695 H   0  0  0  0  0  0
   -1.9223   -3.7495    1.9682 H   0  0  0  0  0  0
    0.7901   -4.2181    3.2643 H   0  0  0  0  0  0
   -0.1093   -5.3238    2.2844 H   0  0  0  0  0  0
    1.2185   -2.7573    1.2602 H   0  0  0  0  0  0
    1.9043   -4.3371    1.1793 H   0  0  0  0  0  0
    0.9934   -3.8539   -1.0234 H   0  0  0  0  0  0
    0.1085   -5.1550   -0.2968 H   0  0  0  0  0  0
   -0.6059   -1.7938    1.7032 H   0  0  0  0  0  0
  1  2  2  0  0  0
  1  6  1  0  0  0
  1 26  1  0  0  0
  2  3  1  0  0  0
  2 27  1  0  0  0
  3  4  2  0  0  0
  3 14  1  0  0  0
  4  5  1  0  0  0
  4  7  1  0  0  0
  5  6  2  0  0  0
  5 28  1  0  0  0
  7  8  1  0  0  0
  8  9  2  0  0  0
  8 13  1  0  0  0
  9 10  1  0  0  0
  9 29  1  0  0  0
 10 11  2  0  0  0
 10 30  1  0  0  0
 11 12  1  0  0  0
 11 25  1  0  0  0
 12 13  2  0  0  0
 12 31  1  0  0  0
 13 14  1  0  0  0
 14 15  1  0  0  0
 15 16  1  0  0  0
 15 32  1  0  0  0
 15 33  1  0  0  0
 16 17  1  0  0  0
 16 34  1  0  0  0
 16 35  1  0  0  0
 17 18  1  0  0  0
 18 19  1  0  0  0
 18 36  1  0  0  0
 18 37  1  0  0  0
 19 20  1  0  0  0
 19 38  1  0  0  0
 19 39  1  0  0  0
 20 21  1  0  0  0
 20 40  1  0  0  0
 20 49  1  0  0  0
 21 22  1  0  0  0
 21 41  1  0  0  0
 21 42  1  0  0  0
 22 23  1  0  0  0
 22 43  1  0  0  0
 22 44  1  0  0  0
 23 24  1  0  0  0
 23 45  1  0  0  0
 23 46  1  0  0  0
 24 25  1  0  0  0
 24 47  1  0  0  0
 24 48  1  0  0  0
M  CHG  1  20   1
M  END
> <i_epik_Tot_Q>
1

> <i_epik_Tot_abs_Q>
1

> <i_f3d_flags>
0

> <i_lp_mmshare_version>
64135

> <i_m_source_file_index>
1

> <b_lp_Chiralities_Consistent>
1

> <r_epik_Charging_Adjusted_Penalty>
0.00851628

> <r_epik_Ionization_Penalty>
0.00856088

> <r_epik_Ionization_Penalty_Charging>
0.00204626

> <r_epik_Ionization_Penalty_Neutral>
0.00651462

> <r_epik_State_Penalty>
0.00647002

> <r_lp_Energy>
34.6315

> <r_lp_tautomer_probability>
1

> <s_epik_cmdline>
J2VwaWtfcHl0aG9uJywgJy1waCcsICc3LjAnLCAnLXRuJywgJzgnLCAnLW1hJywgJzIwMCcsICctaW1hZScsICc8aW5maWxlLm1hZT4nLCAnLW9tYWUnLCAnPG91dGZpbGUubWFlPic=

> <s_epik_input>
W2NIXTFbY0hdbltjSF1jKGMxMilPYzNjNE4yW0NIMl1bQ0gyXU9bQ0gyXVtDSDJdW05IXVtDSDJdW0NIMl1bQ0gyXVtDSDJdT2MoW2NIXTQpW2NIXVtjSF0z

> <s_lp_Force_Field>
OPLS_2005

> <s_lp_Variant>
MCD00017-1

> <s_m_source_file>
MCD00017.smi

$$$$
MCD00017
                    3D
 Schrodinger Suite 2023-4.
 50 53  0  0  1  0            999 V2000
   -4.6891   -2.4709   -1.4661 C   0  0  0  0  0  0
   -3.2824   -2.4799   -1.3743 C   0  0  0  0  0  0
   -2.6271   -1.4797   -0.6116 C   0  0  0  0  0  0
   -3.4198   -0.5177    0.0602 C   0  0  0  0  0  0
   -4.8228   -0.5602   -0.0722 C   0  0  0  0  0  0
   -5.4008   -1.5209   -0.8237 N   0  3  0  0  0  0
   -2.8481    0.4602    0.8362 O   0  0  0  0  0  0
   -1.5050    0.3756    1.1189 C   0  0  0  0  0  0
   -0.9094    1.2411    2.0559 C   0  0  0  0  0  0
    0.4701    1.1886    2.3358 C   0  0  0  0  0  0
    1.3113    0.2473    1.6876 C   0  0  0  0  0  0
    0.7612   -0.6833    0.7809 C   0  0  0  0  0  0
   -0.6183   -0.5433    0.5156 C   0  0  0  0  0  0
   -1.2296   -1.3978   -0.4538 N   0  0  0  0  0  0
   -0.3737   -1.8090   -1.5836 C   0  0  0  0  0  0
    0.2257   -0.6307   -2.3805 C   0  0  0  0  0  0
    1.5885   -0.4901   -2.0156 O   0  0  0  0  0  0
    2.2289    0.6322   -2.5916 C   0  0  0  0  0  0
    3.7141    0.5838   -2.2014 C   0  0  0  0  0  0
    3.9466    0.8852   -0.7702 N   0  3  0  0  0  0
    3.8818    2.3196   -0.4194 C   0  0  0  0  0  0
    4.4766    2.6119    0.9707 C   0  0  0  0  0  0
    3.4920    2.5002    2.1498 C   0  0  0  0  0  0
    3.3279    1.0857    2.7437 C   0  0  0  0  0  0
    2.6772    0.1702    1.8693 O   0  0  0  0  0  0
   -5.2626   -3.1965   -2.0243 H   0  0  0  0  0  0
   -2.7402   -3.2684   -1.8731 H   0  0  0  0  0  0
   -5.4957    0.1393    0.4019 H   0  0  0  0  0  0
   -1.5217    1.9727    2.5626 H   0  0  0  0  0  0
    0.8585    1.8952    3.0526 H   0  0  0  0  0  0
    1.3929   -1.4237    0.3152 H   0  0  0  0  0  0
    0.4050   -2.4926   -1.2449 H   0  0  0  0  0  0
   -0.9385   -2.3988   -2.3003 H   0  0  0  0  0  0
    0.1760   -0.8468   -3.4486 H   0  0  0  0  0  0
   -0.3326    0.2923   -2.2136 H   0  0  0  0  0  0
    2.1375    0.5807   -3.6774 H   0  0  0  0  0  0
    1.7561    1.5603   -2.2680 H   0  0  0  0  0  0
    4.1087   -0.4108   -2.4117 H   0  0  0  0  0  0
    4.2901    1.2757   -2.8171 H   0  0  0  0  0  0
    3.2879    0.3681   -0.2044 H   0  0  0  0  0  0
    4.4649    2.8727   -1.1568 H   0  0  0  0  0  0
    2.8576    2.6859   -0.4932 H   0  0  0  0  0  0
    5.3725    2.0157    1.1491 H   0  0  0  0  0  0
    4.8225    3.6463    0.9513 H   0  0  0  0  0  0
    3.8743    3.1335    2.9513 H   0  0  0  0  0  0
    2.5325    2.9376    1.8768 H   0  0  0  0  0  0
    4.3148    0.6785    2.9649 H   0  0  0  0  0  0
    2.8168    1.1230    3.7063 H   0  0  0  0  0  0
    4.8780    0.5659   -0.5448 H   0  0  0  0  0  0
   -6.4182   -1.5343   -0.9023 H   0  0  0  0  0  0
  1  2  2  0  0  0
  1  6  1  0  0  0
  1 26  1  0  0  0
  2  3  1  0  0  0
  2 27  1  0  0  0
  3  4  2  0  0  0
  3 14  1  0  0  0
  4  5  1  0  0  0
  4  7  1  0  0  0
  5  6  2  0  0  0
  5 28  1  0  0  0
  6 50  1  0  0  0
  7  8  1  0  0  0
  8  9  2  0  0  0
  8 13  1  0  0  0
  9 10  1  0  0  0
  9 29  1  0  0  0
 10 11  2  0  0  0
 10 30  1  0  0  0
 11 12  1  0  0  0
 11 25  1  0  0  0
 12 13  2  0  0  0
 12 31  1  0  0  0
 13 14  1  0  0  0
 14 15  1  0  0  0
 15 16  1  0  0  0
 15 32  1  0  0  0
 15 33  1  0  0  0
 16 17  1  0  0  0
 16 34  1  0  0  0
 16 35  1  0  0  0
 17 18  1  0  0  0
 18 19  1  0  0  0
 18 36  1  0  0  0
 18 37  1  0  0  0
 19 20  1  0  0  0
 19 38  1  0  0  0
 19 39  1  0  0  0
 20 21  1  0  0  0
 20 40  1  0  0  0
 20 49  1  0  0  0
 21 22  1  0  0  0
 21 41  1  0  0  0
 21 42  1  0  0  0
 22 23  1  0  0  0
 22 43  1  0  0  0
 22 44  1  0  0  0
 23 24  1  0  0  0
 23 45  1  0  0  0
 23 46  1  0  0  0
 24 25  1  0  0  0
 24 47  1  0  0  0
 24 48  1  0  0  0
M  CHG  2   6   1  20   1
M  END
> <i_epik_Tot_Q>
2

> <i_epik_Tot_abs_Q>
2

> <i_f3d_flags>
0

> <i_lp_mmshare_version>
64135

> <i_m_source_file_index>
1

> <b_lp_Chiralities_Consistent>
1

> <r_epik_Charging_Adjusted_Penalty>
5.3612

> <r_epik_Ionization_Penalty>
2.68162

> <r_epik_Ionization_Penalty_Charging>
2.68162

> <r_epik_Ionization_Penalty_Neutral>
4.74294e-09

> <r_epik_State_Penalty>
2.67958

> <r_lp_Energy>
43.7863

> <r_lp_tautomer_probability>
1

> <s_epik_cmdline>
J2VwaWtfcHl0aG9uJywgJy1waCcsICc3LjAnLCAnLXRuJywgJzgnLCAnLW1hJywgJzIwMCcsICctaW1hZScsICc8aW5maWxlLm1hZT4nLCAnLW9tYWUnLCAnPG91dGZpbGUubWFlPic=

> <s_epik_input>
W2NIXTFbY0hdbltjSF1jKGMxMilPYzNjNE4yW0NIMl1bQ0gyXU9bQ0gyXVtDSDJdW05IXVtDSDJdW0NIMl1bQ0gyXVtDSDJdT2MoW2NIXTQpW2NIXVtjSF0z

> <s_lp_Force_Field>
OPLS_2005

> <s_lp_Variant>
MCD00017-2

> <s_m_source_file>
MCD00017.smi

$$$$
MCD00018
                    3D
 Schrodinger Suite 2023-4.
 39 41  0  0  1  0            999 V2000
   -1.4873    3.2292    0.7103 O   0  0  0  0  0  0
   -1.1292    2.0733    0.9257 C   0  0  0  0  0  0
   -0.4722    1.3521   -0.0035 N   0  0  0  0  0  0
   -0.0726   -0.0596    0.0364 C   0  0  2  0  0  0
    1.4559   -0.1714    0.1032 C   0  0  0  0  0  0
    1.9280   -0.9574    0.9535 O   0  0  0  0  0  0
    2.1268    0.5155   -0.6994 O   0  5  0  0  0  0
   -0.5671   -0.7678   -1.2457 C   0  0  0  0  0  0
   -2.0161   -0.7841   -1.3372 N   0  0  0  0  0  0
   -2.9249   -1.2473   -0.4111 C   0  0  0  0  0  0
   -4.1315   -0.9617   -0.9817 C   0  0  0  0  0  0
   -3.9129   -0.3968   -2.2371 N   0  0  0  0  0  0
   -2.6358   -0.3023   -2.4418 N   0  0  0  0  0  0
   -5.4958   -1.1152   -0.3884 C   0  0  0  0  0  0
   -5.6273   -0.1870    0.7975 C   0  0  0  0  0  0
   -5.5439   -0.5762    2.0788 C   0  0  0  0  0  0
   -5.5171    0.3801    3.2535 C   0  0  0  0  0  0
   -4.4247    0.1148    4.1285 O   0  0  0  0  0  0
   -3.1441    0.4847    3.7656 C   0  0  0  0  0  0
   -2.1279    0.2332    4.7078 C   0  0  0  0  0  0
   -0.7951    0.5977    4.4457 C   0  0  0  0  0  0
   -0.4498    1.2089    3.2261 C   0  0  0  0  0  0
    1.1901    1.7097    2.9947 Cl  0  0  0  0  0  0
   -1.4497    1.4332    2.2471 C   0  0  0  0  0  0
   -2.7910    1.0921    2.5337 C   0  0  0  0  0  0
   -0.2472    1.8320   -0.8628 H   0  0  0  0  0  0
   -0.4903   -0.5681    0.9061 H   0  0  0  0  0  0
   -0.1565   -0.2874   -2.1364 H   0  0  0  0  0  0
   -0.2246   -1.8034   -1.2632 H   0  0  0  0  0  0
   -2.6485   -1.6682    0.5444 H   0  0  0  0  0  0
   -6.2760   -0.8805   -1.1131 H   0  0  0  0  0  0
   -5.6569   -2.1460   -0.0711 H   0  0  0  0  0  0
   -5.6978    0.8660    0.5658 H   0  0  0  0  0  0
   -5.4369   -1.6249    2.3149 H   0  0  0  0  0  0
   -5.5221    1.4212    2.9270 H   0  0  0  0  0  0
   -6.4360    0.2332    3.8209 H   0  0  0  0  0  0
   -2.3760   -0.2297    5.6516 H   0  0  0  0  0  0
   -0.0353    0.4195    5.1925 H   0  0  0  0  0  0
   -3.5380    1.3029    1.7848 H   0  0  0  0  0  0
  1  2  2  0  0  0
  2  3  1  0  0  0
  2 24  1  0  0  0
  3  4  1  0  0  0
  3 26  1  0  0  0
  4  5  1  0  0  0
  4  8  1  0  0  0
  4 27  1  0  0  0
  5  6  2  0  0  0
  5  7  1  0  0  0
  8  9  1  0  0  0
  8 28  1  0  0  0
  8 29  1  0  0  0
  9 10  1  0  0  0
  9 13  1  0  0  0
 10 11  2  0  0  0
 10 30  1  0  0  0
 11 12  1  0  0  0
 11 14  1  0  0  0
 12 13  2  0  0  0
 14 15  1  0  0  0
 14 31  1  0  0  0
 14 32  1  0  0  0
 15 16  2  0  0  0
 15 33  1  0  0  0
 16 17  1  0  0  0
 16 34  1  0  0  0
 17 18  1  0  0  0
 17 35  1  0  0  0
 17 36  1  0  0  0
 18 19  1  0  0  0
 19 20  1  0  0  0
 19 25  2  0  0  0
 20 21  2  0  0  0
 20 37  1  0  0  0
 21 22  1  0  0  0
 21 38  1  0  0  0
 22 23  1  0  0  0
 22 24  2  0  0  0
 24 25  1  0  0  0
 25 39  1  0  0  0
M  CHG  1   7  -1
M  END
> <i_epik_Tot_Q>
-1

> <i_epik_Tot_abs_Q>
1

> <i_f3d_flags>
0

> <i_lp_mmshare_version>
64135

> <i_m_source_file_index>
1

> <b_lp_Chiralities_Consistent>
1

> <r_epik_Charging_Adjusted_Penalty>
3.76088e-05

> <r_epik_Ionization_Penalty>
5.12931e-05

> <r_epik_Ionization_Penalty_Charging>
3.76088e-05

> <r_epik_Ionization_Penalty_Neutral>
1.36844e-05

> <r_epik_State_Penalty>
-0

> <r_lp_Energy>
20.487

> <r_lp_tautomer_probability>
1

> <s_epik_cmdline>
J2VwaWtfcHl0aG9uJywgJy1waCcsICc3LjAnLCAnLXRuJywgJzgnLCAnLW1hJywgJzIwMCcsICctaW1hZScsICc8aW5maWxlLm1hZT4nLCAnLW9tYWUnLCAnPG91dGZpbGUubWFlPic=

> <s_epik_input>
Tz1DKFtPSF0pW0NASF0oW0NIMl0xKVtOSF1DKD1PKWMoW2NIXTIpYyhDbClbY0hdW2NIXWMyT1tDSDJdXFtDSF09W0NIXVxbQ0gyXWMoW2NIXW4xMylubjM=

> <s_lp_Force_Field>
OPLS_2005

> <s_lp_Variant>
MCD00018-1

> <s_m_source_file>
MCD00018.smi

$$$$
MCD00019
                    3D
 Schrodinger Suite 2023-4.
 41 43  0  0  1  0            999 V2000
   -1.0263    3.3673    0.8960 O   0  0  0  0  0  0
   -0.9103    2.1489    1.0132 C   0  0  0  0  0  0
   -0.4954    1.3817   -0.0118 N   0  0  0  0  0  0
   -0.0375   -0.0107    0.0137 C   0  0  2  0  0  0
    1.4970   -0.0031    0.0428 C   0  0  0  0  0  0
    2.0460   -0.5080    1.0462 O   0  0  0  0  0  0
    2.0955    0.5104   -0.9292 O   0  5  0  0  0  0
   -0.5108   -0.7252   -1.2750 C   0  0  0  0  0  0
   -1.9018   -1.1387   -1.1861 N   0  0  0  0  0  0
   -3.0361   -0.3545   -1.1525 C   0  0  0  0  0  0
   -4.0457   -1.2606   -0.9980 C   0  0  0  0  0  0
   -3.5011   -2.5438   -1.0163 N   0  0  0  0  0  0
   -2.2115   -2.4561   -1.1150 N   0  0  0  0  0  0
   -5.5151   -1.0161   -0.8351 C   0  0  0  0  0  0
   -6.0797   -1.4283    0.5405 C   0  0  0  0  0  0
   -5.4084   -0.7733    1.7670 C   0  0  0  0  0  0
   -4.2625   -1.6110    2.3708 C   0  0  0  0  0  0
   -3.7605   -1.0389    3.5762 O   0  0  0  0  0  0
   -2.7590   -0.0923    3.5069 C   0  0  0  0  0  0
   -2.1282    0.2679    4.7133 C   0  0  0  0  0  0
   -1.0895    1.2175    4.7257 C   0  0  0  0  0  0
   -0.6656    1.8289    3.5300 C   0  0  0  0  0  0
    0.6238    2.9811    3.6055 Cl  0  0  0  0  0  0
   -1.2889    1.4813    2.3063 C   0  0  0  0  0  0
   -2.3354    0.5329    2.3107 C   0  0  0  0  0  0
   -0.3071    1.8684   -0.8761 H   0  0  0  0  0  0
   -0.3935   -0.5618    0.8840 H   0  0  0  0  0  0
   -0.3943   -0.0844   -2.1506 H   0  0  0  0  0  0
    0.0963   -1.6138   -1.4630 H   0  0  0  0  0  0
   -3.0215    0.7243   -1.1973 H   0  0  0  0  0  0
   -5.7261    0.0415   -0.9969 H   0  0  0  0  0  0
   -6.0623   -1.5450   -1.6159 H   0  0  0  0  0  0
   -7.1386   -1.1672    0.5493 H   0  0  0  0  0  0
   -6.0487   -2.5139    0.6415 H   0  0  0  0  0  0
   -5.0788    0.2355    1.5196 H   0  0  0  0  0  0
   -6.1653   -0.6499    2.5423 H   0  0  0  0  0  0
   -4.6504   -2.5957    2.6328 H   0  0  0  0  0  0
   -3.4604   -1.8004    1.6588 H   0  0  0  0  0  0
   -2.4381   -0.1940    5.6391 H   0  0  0  0  0  0
   -0.6138    1.4762    5.6603 H   0  0  0  0  0  0
   -2.8117    0.3010    1.3741 H   0  0  0  0  0  0
  1  2  2  0  0  0
  2  3  1  0  0  0
  2 24  1  0  0  0
  3  4  1  0  0  0
  3 26  1  0  0  0
  4  5  1  0  0  0
  4  8  1  0  0  0
  4 27  1  0  0  0
  5  6  2  0  0  0
  5  7  1  0  0  0
  8  9  1  0  0  0
  8 28  1  0  0  0
  8 29  1  0  0  0
  9 10  1  0  0  0
  9 13  1  0  0  0
 10 11  2  0  0  0
 10 30  1  0  0  0
 11 12  1  0  0  0
 11 14  1  0  0  0
 12 13  2  0  0  0
 14 15  1  0  0  0
 14 31  1  0  0  0
 14 32  1  0  0  0
 15 16  1  0  0  0
 15 33  1  0  0  0
 15 34  1  0  0  0
 16 17  1  0  0  0
 16 35  1  0  0  0
 16 36  1  0  0  0
 17 18  1  0  0  0
 17 37  1  0  0  0
 17 38  1  0  0  0
 18 19  1  0  0  0
 19 20  1  0  0  0
 19 25  2  0  0  0
 20 21  2  0  0  0
 20 39  1  0  0  0
 21 22  1  0  0  0
 21 40  1  0  0  0
 22 23  1  0  0  0
 22 24  2  0  0  0
 24 25  1  0  0  0
 25 41  1  0  0  0
M  CHG  1   7  -1
M  END
> <i_epik_Tot_Q>
-1

> <i_epik_Tot_abs_Q>
1

> <i_f3d_flags>
0

> <i_lp_mmshare_version>
64135

> <i_m_source_file_index>
1

> <b_lp_Chiralities_Consistent>
1

> <r_epik_Charging_Adjusted_Penalty>
3.76088e-05

> <r_epik_Ionization_Penalty>
4.00436e-05

> <r_epik_Ionization_Penalty_Charging>
3.76088e-05

> <r_epik_Ionization_Penalty_Neutral>
2.43485e-06

> <r_epik_State_Penalty>
-0

> <r_lp_Energy>
20.4632

> <r_lp_tautomer_probability>
1

> <s_epik_cmdline>
J2VwaWtfcHl0aG9uJywgJy1waCcsICc3LjAnLCAnLXRuJywgJzgnLCAnLW1hJywgJzIwMCcsICctaW1hZScsICc8aW5maWxlLm1hZT4nLCAnLW9tYWUnLCAnPG91dGZpbGUubWFlPic=

> <s_epik_input>
Tz1DKFtPSF0pW0NASF0oW0NIMl0xKVtOSF1DKD1PKWMoW2NIXTIpYyhDbClbY0hdW2NIXWMyT1tDSDJdW0NIMl1bQ0gyXVtDSDJdYyhbY0hdbjEzKW5uMw==

> <s_lp_Force_Field>
OPLS_2005

> <s_lp_Variant>
MCD00019-1

> <s_m_source_file>
MCD00019.smi

$$$$
MCD00020
                    3D
 Schrodinger Suite 2023-4.
 39 41  0  0  1  0            999 V2000
   -1.4930    3.2364    0.7225 O   0  0  0  0  0  0
   -1.1506    2.0736    0.9258 C   0  0  0  0  0  0
   -0.4488    1.3740    0.0127 N   0  0  0  0  0  0
   -0.0968   -0.0513    0.0147 C   0  0  2  0  0  0
    1.4232   -0.2204    0.1330 C   0  0  0  0  0  0
    1.8360   -1.0493    0.9734 O   0  0  0  0  0  0
    2.1470    0.4681   -0.6208 O   0  5  0  0  0  0
   -0.5823   -0.7071   -1.2977 C   0  0  0  0  0  0
   -2.0731   -0.6564   -1.4356 C   0  0  0  0  0  0
   -3.0196   -1.3038   -0.6967 C   0  0  0  0  0  0
   -4.2009   -0.7565   -1.1473 N   0  0  0  0  0  0
   -3.9919    0.1387   -2.1416 N   0  0  0  0  0  0
   -2.7104    0.2157   -2.3186 N   0  0  0  0  0  0
   -5.5281   -0.9479   -0.6046 C   0  0  0  0  0  0
   -5.6974   -0.0548    0.6028 C   0  0  0  0  0  0
   -5.6665   -0.4823    1.8739 C   0  0  0  0  0  0
   -5.6601    0.4423    3.0741 C   0  0  0  0  0  0
   -4.6023    0.1319    3.9759 O   0  0  0  0  0  0
   -3.3010    0.4719    3.6596 C   0  0  0  0  0  0
   -2.3225    0.1659    4.6251 C   0  0  0  0  0  0
   -0.9723    0.4964    4.4136 C   0  0  0  0  0  0
   -0.5712    1.1275    3.2217 C   0  0  0  0  0  0
    1.0886    1.5881    3.0582 Cl  0  0  0  0  0  0
   -1.5322    1.4059    2.2176 C   0  0  0  0  0  0
   -2.8919    1.0988    2.4547 C   0  0  0  0  0  0
   -0.1761    1.8764   -0.8196 H   0  0  0  0  0  0
   -0.5641   -0.5721    0.8514 H   0  0  0  0  0  0
   -0.1111   -0.2235   -2.1553 H   0  0  0  0  0  0
   -0.2561   -1.7478   -1.3285 H   0  0  0  0  0  0
   -2.9541   -2.0122    0.1159 H   0  0  0  0  0  0
   -6.2798   -0.7101   -1.3585 H   0  0  0  0  0  0
   -5.6498   -1.9967   -0.3307 H   0  0  0  0  0  0
   -5.7469    1.0055    0.4008 H   0  0  0  0  0  0
   -5.5804   -1.5385    2.0837 H   0  0  0  0  0  0
   -5.6325    1.4913    2.7750 H   0  0  0  0  0  0
   -6.5991    0.3008    3.6089 H   0  0  0  0  0  0
   -2.6132   -0.3122    5.5490 H   0  0  0  0  0  0
   -0.2420    0.2777    5.1788 H   0  0  0  0  0  0
   -3.6094    1.3524    1.6903 H   0  0  0  0  0  0
  1  2  2  0  0  0
  2  3  1  0  0  0
  2 24  1  0  0  0
  3  4  1  0  0  0
  3 26  1  0  0  0
  4  5  1  0  0  0
  4  8  1  0  0  0
  4 27  1  0  0  0
  5  6  2  0  0  0
  5  7  1  0  0  0
  8  9  1  0  0  0
  8 28  1  0  0  0
  8 29  1  0  0  0
  9 10  2  0  0  0
  9 13  1  0  0  0
 10 11  1  0  0  0
 10 30  1  0  0  0
 11 12  1  0  0  0
 11 14  1  0  0  0
 12 13  2  0  0  0
 14 15  1  0  0  0
 14 31  1  0  0  0
 14 32  1  0  0  0
 15 16  2  0  0  0
 15 33  1  0  0  0
 16 17  1  0  0  0
 16 34  1  0  0  0
 17 18  1  0  0  0
 17 35  1  0  0  0
 17 36  1  0  0  0
 18 19  1  0  0  0
 19 20  1  0  0  0
 19 25  2  0  0  0
 20 21  2  0  0  0
 20 37  1  0  0  0
 21 22  1  0  0  0
 21 38  1  0  0  0
 22 23  1  0  0  0
 22 24  2  0  0  0
 24 25  1  0  0  0
 25 39  1  0  0  0
M  CHG  1   7  -1
M  END
> <i_epik_Tot_Q>
-1

> <i_epik_Tot_abs_Q>
1

> <i_f3d_flags>
0

> <i_lp_mmshare_version>
64135

> <i_m_source_file_index>
1

> <b_lp_Chiralities_Consistent>
1

> <r_epik_Charging_Adjusted_Penalty>
9.42765e-05

> <r_epik_Ionization_Penalty>
9.91423e-05

> <r_epik_Ionization_Penalty_Charging>
9.42765e-05

> <r_epik_Ionization_Penalty_Neutral>
4.86577e-06

> <r_epik_State_Penalty>
-0

> <r_lp_Energy>
16.4218

> <r_lp_tautomer_probability>
1

> <s_epik_cmdline>
J2VwaWtfcHl0aG9uJywgJy1waCcsICc3LjAnLCAnLXRuJywgJzgnLCAnLW1hJywgJzIwMCcsICctaW1hZScsICc8aW5maWxlLm1hZT4nLCAnLW9tYWUnLCAnPG91dGZpbGUubWFlPic=

> <s_epik_input>
Tz1DKFtPSF0pW0NASF0oW0NIMl0xKVtOSF1DKD1PKWMoW2NIXTIpYyhDbClbY0hdW2NIXWMyT1tDSDJdXFtDSF09W0NIXVxbQ0gyXW4oW2NIXWMxMylubjM=

> <s_lp_Force_Field>
OPLS_2005

> <s_lp_Variant>
MCD00020-1

> <s_m_source_file>
MCD00020.smi

$$$$
MCD00021
                    3D
 Schrodinger Suite 2023-4.
 41 43  0  0  1  0            999 V2000
   -1.0056    3.3700    0.8913 O   0  0  0  0  0  0
   -0.9165    2.1487    1.0015 C   0  0  0  0  0  0
   -0.4813    1.3823   -0.0148 N   0  0  0  0  0  0
   -0.0523   -0.0189    0.0104 C   0  0  2  0  0  0
    1.4810   -0.0481    0.0737 C   0  0  0  0  0  0
    1.9958   -0.5638    1.0897 O   0  0  0  0  0  0
    2.1129    0.4522   -0.8840 O   0  5  0  0  0  0
   -0.5232   -0.7073   -1.2932 C   0  0  0  0  0  0
   -1.9662   -1.1077   -1.2183 C   0  0  0  0  0  0
   -3.0803   -0.3183   -1.1998 C   0  0  0  0  0  0
   -4.0983   -1.2102   -0.9416 N   0  0  0  0  0  0
   -3.6431   -2.4854   -0.8973 N   0  0  0  0  0  0
   -2.3559   -2.4342   -1.0347 N   0  0  0  0  0  0
   -5.4985   -0.9254   -0.6964 C   0  0  0  0  0  0
   -5.8002   -0.5917    0.7820 C   0  0  0  0  0  0
   -5.5578   -1.7427    1.7817 C   0  0  0  0  0  0
   -4.1538   -1.8014    2.4142 C   0  0  0  0  0  0
   -4.0252   -0.8458    3.4644 O   0  0  0  0  0  0
   -2.9404    0.0012    3.4372 C   0  0  0  0  0  0
   -2.3196    0.3173    4.6607 C   0  0  0  0  0  0
   -1.2166    1.1905    4.6974 C   0  0  0  0  0  0
   -0.7294    1.7771    3.5130 C   0  0  0  0  0  0
    0.6294    2.8439    3.6191 Cl  0  0  0  0  0  0
   -1.3525    1.4811    2.2755 C   0  0  0  0  0  0
   -2.4566    0.6001    2.2523 C   0  0  0  0  0  0
   -0.2548    1.8730   -0.8676 H   0  0  0  0  0  0
   -0.4421   -0.5645    0.8703 H   0  0  0  0  0  0
   -0.3554   -0.0582   -2.1541 H   0  0  0  0  0  0
    0.0788   -1.5991   -1.4783 H   0  0  0  0  0  0
   -3.2198    0.7504   -1.2697 H   0  0  0  0  0  0
   -5.7867   -0.0852   -1.3290 H   0  0  0  0  0  0
   -6.0970   -1.7769   -1.0238 H   0  0  0  0  0  0
   -5.2574    0.3009    1.0926 H   0  0  0  0  0  0
   -6.8544   -0.3193    0.8384 H   0  0  0  0  0  0
   -6.2870   -1.6693    2.5894 H   0  0  0  0  0  0
   -5.7709   -2.6908    1.2870 H   0  0  0  0  0  0
   -4.0320   -2.7788    2.8814 H   0  0  0  0  0  0
   -3.3643   -1.7494    1.6680 H   0  0  0  0  0  0
   -2.6856   -0.1204    5.5777 H   0  0  0  0  0  0
   -0.7447    1.4153    5.6426 H   0  0  0  0  0  0
   -2.9519    0.4100    1.3155 H   0  0  0  0  0  0
  1  2  2  0  0  0
  2  3  1  0  0  0
  2 24  1  0  0  0
  3  4  1  0  0  0
  3 26  1  0  0  0
  4  5  1  0  0  0
  4  8  1  0  0  0
  4 27  1  0  0  0
  5  6  2  0  0  0
  5  7  1  0  0  0
  8  9  1  0  0  0
  8 28  1  0  0  0
  8 29  1  0  0  0
  9 10  2  0  0  0
  9 13  1  0  0  0
 10 11  1  0  0  0
 10 30  1  0  0  0
 11 12  1  0  0  0
 11 14  1  0  0  0
 12 13  2  0  0  0
 14 15  1  0  0  0
 14 31  1  0  0  0
 14 32  1  0  0  0
 15 16  1  0  0  0
 15 33  1  0  0  0
 15 34  1  0  0  0
 16 17  1  0  0  0
 16 35  1  0  0  0
 16 36  1  0  0  0
 17 18  1  0  0  0
 17 37  1  0  0  0
 17 38  1  0  0  0
 18 19  1  0  0  0
 19 20  1  0  0  0
 19 25  2  0  0  0
 20 21  2  0  0  0
 20 39  1  0  0  0
 21 22  1  0  0  0
 21 40  1  0  0  0
 22 23  1  0  0  0
 22 24  2  0  0  0
 24 25  1  0  0  0
 25 41  1  0  0  0
M  CHG  1   7  -1
M  END
> <i_epik_Tot_Q>
-1

> <i_epik_Tot_abs_Q>
1

> <i_f3d_flags>
0

> <i_lp_mmshare_version>
64135

> <i_m_source_file_index>
1

> <b_lp_Chiralities_Consistent>
1

> <r_epik_Charging_Adjusted_Penalty>
9.42765e-05

> <r_epik_Ionization_Penalty>
9.53752e-05

> <r_epik_Ionization_Penalty_Charging>
9.42765e-05

> <r_epik_Ionization_Penalty_Neutral>
1.09875e-06

> <r_epik_State_Penalty>
-0

> <r_lp_Energy>
23.3456

> <r_lp_tautomer_probability>
1

> <s_epik_cmdline>
J2VwaWtfcHl0aG9uJywgJy1waCcsICc3LjAnLCAnLXRuJywgJzgnLCAnLW1hJywgJzIwMCcsICctaW1hZScsICc8aW5maWxlLm1hZT4nLCAnLW9tYWUnLCAnPG91dGZpbGUubWFlPic=

> <s_epik_input>
Tz1DKFtPSF0pW0NASF0oW0NIMl0xKVtOSF1DKD1PKWMoW2NIXTIpYyhDbClbY0hdW2NIXWMyT1tDSDJdW0NIMl1bQ0gyXVtDSDJdbihbY0hdYzEzKW5uMw==

> <s_lp_Force_Field>
OPLS_2005

> <s_lp_Variant>
MCD00021-1

> <s_m_source_file>
MCD00021.smi

$$$$
MCD00022
                    3D
 Schrodinger Suite 2023-4.
 40 42  0  0  1  0            999 V2000
   -1.4209    3.2696    0.8082 O   0  0  0  0  0  0
   -1.0682    2.1065    0.9923 C   0  0  0  0  0  0
   -0.4567    1.3972    0.0225 N   0  0  0  0  0  0
   -0.0747   -0.0207    0.0033 C   0  0  2  0  0  0
    1.4519   -0.1555    0.0588 C   0  0  0  0  0  0
    1.9151   -0.9815    0.8748 O   0  0  0  0  0  0
    2.1274    0.5516   -0.7220 O   0  5  0  0  0  0
   -0.5646   -0.6563   -1.3198 C   0  0  0  0  0  0
   -2.0558   -0.6911   -1.4108 C   0  0  0  0  0  0
   -3.0165   -0.7725   -0.4373 C   0  0  0  0  0  0
   -4.2320   -0.6700   -1.0581 N   0  0  0  0  0  0
   -4.0600   -0.6156   -2.3832 C   0  0  0  0  0  0
   -2.7394   -0.6261   -2.5984 N   0  3  0  0  0  0
   -5.5391   -0.6279   -0.4022 C   0  0  0  0  0  0
   -5.4997    0.3086    0.7869 C   0  0  0  0  0  0
   -5.5057   -0.0944    2.0661 C   0  0  0  0  0  0
   -5.3198    0.8339    3.2475 C   0  0  0  0  0  0
   -4.2787    0.3841    4.1121 O   0  0  0  0  0  0
   -2.9557    0.6233    3.7912 C   0  0  0  0  0  0
   -1.9765    0.2808    4.7425 C   0  0  0  0  0  0
   -0.6299    0.5752    4.4652 C   0  0  0  0  0  0
   -0.3011    1.1896    3.2427 C   0  0  0  0  0  0
    1.3411    1.6509    2.9544 Cl  0  0  0  0  0  0
   -1.3435    1.4510    2.3165 C   0  0  0  0  0  0
   -2.6444    1.1885    2.5968 N   0  0  0  0  0  0
   -0.2539    1.9004   -0.8289 H   0  0  0  0  0  0
   -0.5009   -0.5618    0.8493 H   0  0  0  0  0  0
   -0.1688   -0.1126   -2.1798 H   0  0  0  0  0  0
   -0.2006   -1.6815   -1.4031 H   0  0  0  0  0  0
   -2.9210   -0.8448    0.6366 H   0  0  0  0  0  0
   -4.8298   -0.5485   -3.1310 H   0  0  0  0  0  0
   -6.2911   -0.2895   -1.1161 H   0  0  0  0  0  0
   -5.7938   -1.6426   -0.0940 H   0  0  0  0  0  0
   -5.3748    1.3580    0.5613 H   0  0  0  0  0  0
   -5.5979   -1.1458    2.2967 H   0  0  0  0  0  0
   -5.1613    1.8650    2.9265 H   0  0  0  0  0  0
   -6.2466    0.8319    3.8211 H   0  0  0  0  0  0
   -2.2563   -0.1731    5.6816 H   0  0  0  0  0  0
    0.1370    0.3547    5.1930 H   0  0  0  0  0  0
   -2.3058   -0.5703   -3.5114 H   0  0  0  0  0  0
  1  2  2  0  0  0
  2  3  1  0  0  0
  2 24  1  0  0  0
  3  4  1  0  0  0
  3 26  1  0  0  0
  4  5  1  0  0  0
  4  8  1  0  0  0
  4 27  1  0  0  0
  5  6  2  0  0  0
  5  7  1  0  0  0
  8  9  1  0  0  0
  8 28  1  0  0  0
  8 29  1  0  0  0
  9 10  2  0  0  0
  9 13  1  0  0  0
 10 11  1  0  0  0
 10 30  1  0  0  0
 11 12  1  0  0  0
 11 14  1  0  0  0
 12 13  2  0  0  0
 12 31  1  0  0  0
 13 40  1  0  0  0
 14 15  1  0  0  0
 14 32  1  0  0  0
 14 33  1  0  0  0
 15 16  2  0  0  0
 15 34  1  0  0  0
 16 17  1  0  0  0
 16 35  1  0  0  0
 17 18  1  0  0  0
 17 36  1  0  0  0
 17 37  1  0  0  0
 18 19  1  0  0  0
 19 20  1  0  0  0
 19 25  2  0  0  0
 20 21  2  0  0  0
 20 38  1  0  0  0
 21 22  1  0  0  0
 21 39  1  0  0  0
 22 23  1  0  0  0
 22 24  2  0  0  0
 24 25  1  0  0  0
M  CHG  2   7  -1  13   1
M  END
> <i_epik_Tot_Q>
0

> <i_epik_Tot_abs_Q>
2

> <i_f3d_flags>
0

> <i_lp_mmshare_version>
64135

> <i_m_source_file_index>
1

> <b_lp_Chiralities_Consistent>
1

> <r_epik_Charging_Adjusted_Penalty>
0.165124

> <r_epik_Ionization_Penalty>
0.165131

> <r_epik_Ionization_Penalty_Charging>
5.15728e-05

> <r_epik_Ionization_Penalty_Neutral>
0.16508

> <r_epik_State_Penalty>
0.165072

> <r_lp_Energy>
12.3531

> <r_lp_tautomer_probability>
1

> <s_epik_cmdline>
J2VwaWtfcHl0aG9uJywgJy1waCcsICc3LjAnLCAnLXRuJywgJzgnLCAnLW1hJywgJzIwMCcsICctaW1hZScsICc8aW5maWxlLm1hZT4nLCAnLW9tYWUnLCAnPG91dGZpbGUubWFlPic=

> <s_epik_input>
Tz1DKFtPSF0pW0NASF0oW0NIMl0xKVtOSF1DKD1PKWMobjIpYyhDbClbY0hdW2NIXWMyT1tDSDJdXFtDSF09W0NIXVxbQ0gyXW4oW2NIXWMxMylbY0hdbjM=

> <s_lp_Force_Field>
OPLS_2005

> <s_lp_Variant>
MCD00022-1

> <s_m_source_file>
MCD00022.smi

$$$$
MCD00022
                    3D
 Schrodinger Suite 2023-4.
 39 41  0  0  1  0            999 V2000
   -1.3679    3.2656    0.8306 O   0  0  0  0  0  0
   -1.0191    2.0999    1.0075 C   0  0  0  0  0  0
   -0.4302    1.3836    0.0291 N   0  0  0  0  0  0
   -0.0771   -0.0418    0.0149 C   0  0  2  0  0  0
    1.4457   -0.2142    0.0912 C   0  0  0  0  0  0
    1.8777   -1.0565    0.9081 O   0  0  0  0  0  0
    2.1521    0.4871   -0.6674 O   0  5  0  0  0  0
   -0.5780   -0.6770   -1.3036 C   0  0  0  0  0  0
   -2.0677   -0.5881   -1.4415 C   0  0  0  0  0  0
   -3.0252   -0.9497   -0.5238 C   0  0  0  0  0  0
   -4.2396   -0.5085   -1.0259 N   0  0  0  0  0  0
   -3.9670    0.0105   -2.2306 C   0  0  0  0  0  0
   -2.6770    0.0106   -2.5438 N   0  0  0  0  0  0
   -5.5092   -0.5562   -0.3370 C   0  0  0  0  0  0
   -5.4472    0.3314    0.8863 C   0  0  0  0  0  0
   -5.4026   -0.1184    2.1489 C   0  0  0  0  0  0
   -5.2039    0.7735    3.3561 C   0  0  0  0  0  0
   -4.1386    0.3147    4.1858 O   0  0  0  0  0  0
   -2.8271    0.5822    3.8417 C   0  0  0  0  0  0
   -1.8233    0.2523    4.7720 C   0  0  0  0  0  0
   -0.4884    0.5742    4.4701 C   0  0  0  0  0  0
   -0.1957    1.2018    3.2450 C   0  0  0  0  0  0
    1.4324    1.6921    2.9252 Cl  0  0  0  0  0  0
   -1.2606    1.4479    2.3404 C   0  0  0  0  0  0
   -2.5504    1.1613    2.6456 N   0  0  0  0  0  0
   -0.2512    1.8734   -0.8352 H   0  0  0  0  0  0
   -0.5299   -0.5690    0.8556 H   0  0  0  0  0  0
   -0.0966   -0.1970   -2.1578 H   0  0  0  0  0  0
   -0.2766   -1.7246   -1.3432 H   0  0  0  0  0  0
   -2.9355   -1.4021    0.4532 H   0  0  0  0  0  0
   -4.7232    0.4381   -2.8726 H   0  0  0  0  0  0
   -6.3034   -0.2175   -1.0033 H   0  0  0  0  0  0
   -5.7209   -1.5894   -0.0587 H   0  0  0  0  0  0
   -5.3535    1.3911    0.6973 H   0  0  0  0  0  0
   -5.4654   -1.1790    2.3437 H   0  0  0  0  0  0
   -5.0649    1.8162    3.0646 H   0  0  0  0  0  0
   -6.1188    0.7413    3.9475 H   0  0  0  0  0  0
   -2.0759   -0.2126    5.7134 H   0  0  0  0  0  0
    0.2972    0.3633    5.1806 H   0  0  0  0  0  0
  1  2  2  0  0  0
  2  3  1  0  0  0
  2 24  1  0  0  0
  3  4  1  0  0  0
  3 26  1  0  0  0
  4  5  1  0  0  0
  4  8  1  0  0  0
  4 27  1  0  0  0
  5  6  2  0  0  0
  5  7  1  0  0  0
  8  9  1  0  0  0
  8 28  1  0  0  0
  8 29  1  0  0  0
  9 10  2  0  0  0
  9 13  1  0  0  0
 10 11  1  0  0  0
 10 30  1  0  0  0
 11 12  1  0  0  0
 11 14  1  0  0  0
 12 13  2  0  0  0
 12 31  1  0  0  0
 14 15  1  0  0  0
 14 32  1  0  0  0
 14 33  1  0  0  0
 15 16  2  0  0  0
 15 34  1  0  0  0
 16 17  1  0  0  0
 16 35  1  0  0  0
 17 18  1  0  0  0
 17 36  1  0  0  0
 17 37  1  0  0  0
 18 19  1  0  0  0
 19 20  1  0  0  0
 19 25  2  0  0  0
 20 21  2  0  0  0
 20 38  1  0  0  0
 21 22  1  0  0  0
 21 39  1  0  0  0
 22 23  1  0  0  0
 22 24  2  0  0  0
 24 25  1  0  0  0
M  CHG  1   7  -1
M  END
> <i_epik_Tot_Q>
-1

> <i_epik_Tot_abs_Q>
1

> <i_f3d_flags>
0

> <i_lp_mmshare_version>
64135

> <i_m_source_file_index>
1

> <b_lp_Chiralities_Consistent>
1

> <r_epik_Charging_Adjusted_Penalty>
1.67564

> <r_epik_Ionization_Penalty>
0.837865

> <r_epik_Ionization_Penalty_Charging>
0.83786

> <r_epik_Ionization_Penalty_Neutral>
5.00712e-06

> <r_epik_State_Penalty>
0.837784

> <r_lp_Energy>
15.1636

> <r_lp_tautomer_probability>
1

> <s_epik_cmdline>
J2VwaWtfcHl0aG9uJywgJy1waCcsICc3LjAnLCAnLXRuJywgJzgnLCAnLW1hJywgJzIwMCcsICctaW1hZScsICc8aW5maWxlLm1hZT4nLCAnLW9tYWUnLCAnPG91dGZpbGUubWFlPic=

> <s_epik_input>
Tz1DKFtPSF0pW0NASF0oW0NIMl0xKVtOSF1DKD1PKWMobjIpYyhDbClbY0hdW2NIXWMyT1tDSDJdXFtDSF09W0NIXVxbQ0gyXW4oW2NIXWMxMylbY0hdbjM=

> <s_lp_Force_Field>
OPLS_2005

> <s_lp_Variant>
MCD00022-2

> <s_m_source_file>
MCD00022.smi

$$$$
MCD00023
                    3D
 Schrodinger Suite 2023-4.
 39 41  0  0  1  0            999 V2000
   -4.2422    1.5244    3.0699 O   0  0  0  0  0  0
   -3.0437    1.7961    3.1066 C   0  0  0  0  0  0
   -2.4974    2.8452    2.1151 C   0  0  0  0  0  0
   -2.7850    2.4869    0.6332 C   0  0  0  0  0  0
   -2.0836    1.2017    0.2376 C   0  0  0  0  0  0
   -2.7837   -0.0211    0.2611 C   0  0  0  0  0  0
   -2.0691   -1.2312    0.2535 C   0  0  0  0  0  0
   -0.6597   -1.2087    0.2343 C   0  0  0  0  0  0
    0.0355    0.0055   -0.0073 C   0  0  0  0  0  0
    1.5044    0.0392   -0.1243 N   0  3  0  0  0  0
    2.0626   -0.9123   -0.6597 O   0  0  0  0  0  0
    2.0929    1.0280    0.3016 O   0  5  0  0  0  0
   -0.6946    1.2129    0.0053 C   0  0  0  0  0  0
    0.0038   -2.2992    0.7428 O   0  0  0  0  0  0
    0.4983   -2.1229    2.0251 C   0  0  0  0  0  0
   -0.1610   -1.2717    2.9490 C   0  0  0  0  0  0
    0.4393   -0.8937    4.1615 C   0  0  0  0  0  0
    1.6653   -1.4876    4.5239 C   0  0  0  0  0  0
    2.2965   -2.4068    3.6599 C   0  0  0  0  0  0
    3.9531   -3.1839    4.1952 Br  0  0  0  0  0  0
    1.7247   -2.7123    2.4022 C   0  0  0  0  0  0
    2.3679   -3.5525    1.5373 O   0  5  0  0  0  0
   -0.1996    0.1815    5.0373 C   0  0  0  0  0  0
   -0.8128    1.3712    4.2514 C   0  0  0  0  0  0
   -2.2377    1.1698    3.9872 N   0  0  0  0  0  0
   -2.9816    3.7939    2.3478 H   0  0  0  0  0  0
   -1.4323    3.0210    2.2522 H   0  0  0  0  0  0
   -3.8581    2.3937    0.4599 H   0  0  0  0  0  0
   -2.4403    3.2928   -0.0156 H   0  0  0  0  0  0
   -3.8516   -0.0355    0.4233 H   0  0  0  0  0  0
   -2.5926   -2.1584    0.4337 H   0  0  0  0  0  0
   -0.1742    2.1579   -0.0503 H   0  0  0  0  0  0
   -1.1081   -0.8264    2.6938 H   0  0  0  0  0  0
    2.1376   -1.2282    5.4600 H   0  0  0  0  0  0
   -0.9409   -0.2779    5.6924 H   0  0  0  0  0  0
    0.5771    0.5738    5.6949 H   0  0  0  0  0  0
   -0.7367    2.2740    4.8582 H   0  0  0  0  0  0
   -0.2393    1.5560    3.3425 H   0  0  0  0  0  0
   -2.6843    0.4791    4.5730 H   0  0  0  0  0  0
  1  2  2  0  0  0
  2  3  1  0  0  0
  2 25  1  0  0  0
  3  4  1  0  0  0
  3 26  1  0  0  0
  3 27  1  0  0  0
  4  5  1  0  0  0
  4 28  1  0  0  0
  4 29  1  0  0  0
  5  6  2  0  0  0
  5 13  1  0  0  0
  6  7  1  0  0  0
  6 30  1  0  0  0
  7  8  2  0  0  0
  7 31  1  0  0  0
  8  9  1  0  0  0
  8 14  1  0  0  0
  9 10  1  0  0  0
  9 13  2  0  0  0
 10 11  2  0  0  0
 10 12  1  0  0  0
 13 32  1  0  0  0
 14 15  1  0  0  0
 15 16  1  0  0  0
 15 21  2  0  0  0
 16 17  2  0  0  0
 16 33  1  0  0  0
 17 18  1  0  0  0
 17 23  1  0  0  0
 18 19  2  0  0  0
 18 34  1  0  0  0
 19 20  1  0  0  0
 19 21  1  0  0  0
 21 22  1  0  0  0
 23 24  1  0  0  0
 23 35  1  0  0  0
 23 36  1  0  0  0
 24 25  1  0  0  0
 24 37  1  0  0  0
 24 38  1  0  0  0
 25 39  1  0  0  0
M  CHG  3  10   1  12  -1  22  -1
M  END
> <i_epik_Tot_Q>
-1

> <i_epik_Tot_abs_Q>
3

> <i_f3d_flags>
0

> <i_lp_mmshare_version>
64135

> <i_m_source_file_index>
1

> <b_lp_Chiralities_Consistent>
1

> <r_epik_Charging_Adjusted_Penalty>
0.434996

> <r_epik_Ionization_Penalty>
0.217498

> <r_epik_Ionization_Penalty_Charging>
0.217498

> <r_epik_Ionization_Penalty_Neutral>
2.22404e-08

> <r_epik_State_Penalty>
0.217498

> <r_lp_Energy>
37.9712

> <r_lp_tautomer_probability>
1

> <s_epik_cmdline>
J2VwaWtfcHl0aG9uJywgJy1waCcsICc3LjAnLCAnLXRuJywgJzgnLCAnLW1hJywgJzIwMCcsICctaW1hZScsICc8aW5maWxlLm1hZT4nLCAnLW9tYWUnLCAnPG91dGZpbGUubWFlPic=

> <s_epik_input>
W0NIMl0xW0NIMl1DKD1PKVtOSF1bQ0gyXVtDSDJdYyhbY0hdYyhCciljMltPSF0pW2NIXWMyT2MoW2NIXVtjSF1jMTMpYyhbTitdKD1PKVtPLV0pW2NIXTM=

> <s_lp_Force_Field>
OPLS_2005

> <s_lp_Variant>
MCD00023-1

> <s_m_source_file>
MCD00023.smi

$$$$
MCD00023
                    3D
 Schrodinger Suite 2023-4.
 40 42  0  0  1  0            999 V2000
   -4.4632    1.6510    2.7597 O   0  0  0  0  0  0
   -3.2708    1.9238    2.8820 C   0  0  0  0  0  0
   -2.6547    2.9707    1.9299 C   0  0  0  0  0  0
   -2.8426    2.6126    0.4321 C   0  0  0  0  0  0
   -2.1232    1.3231    0.0856 C   0  0  0  0  0  0
   -2.8291    0.1035    0.0721 C   0  0  0  0  0  0
   -2.1217   -1.1096    0.1163 C   0  0  0  0  0  0
   -0.7138   -1.0931    0.1845 C   0  0  0  0  0  0
    0.0014    0.1164   -0.0234 C   0  0  0  0  0  0
    1.4756    0.1418   -0.0529 N   0  3  0  0  0  0
    2.0616   -0.8406   -0.4957 O   0  0  0  0  0  0
    2.0435    1.1487    0.3569 O   0  5  0  0  0  0
   -0.7227    1.3273   -0.0623 C   0  0  0  0  0  0
   -0.0890   -2.1835    0.7402 O   0  0  0  0  0  0
    0.3244   -1.9972    2.0486 C   0  0  0  0  0  0
   -0.3984   -1.1530    2.9303 C   0  0  0  0  0  0
    0.1293   -0.7637    4.1731 C   0  0  0  0  0  0
    1.3411   -1.3403    4.6059 C   0  0  0  0  0  0
    2.0317   -2.2521    3.7802 C   0  0  0  0  0  0
    3.6682   -3.0089    4.3962 Br  0  0  0  0  0  0
    1.5358   -2.5657    2.4945 C   0  0  0  0  0  0
    2.2417   -3.3910    1.6663 O   0  0  0  0  0  0
   -0.5709    0.3073    5.0064 C   0  0  0  0  0  0
   -1.1275    1.4996    4.1833 C   0  0  0  0  0  0
   -2.5301    1.2987    3.8190 N   0  0  0  0  0  0
   -3.1508    3.9209    2.1292 H   0  0  0  0  0  0
   -1.6010    3.1436    2.1395 H   0  0  0  0  0  0
   -3.9020    2.5233    0.1871 H   0  0  0  0  0  0
   -2.4516    3.4166   -0.1926 H   0  0  0  0  0  0
   -3.9052    0.0950    0.1681 H   0  0  0  0  0  0
   -2.6607   -2.0329    0.2702 H   0  0  0  0  0  0
   -0.1964    2.2704   -0.0921 H   0  0  0  0  0  0
   -1.3354   -0.7209    2.6200 H   0  0  0  0  0  0
    1.7570   -1.0714    5.5659 H   0  0  0  0  0  0
    1.8364   -3.4953    0.8190 H   0  0  0  0  0  0
   -1.3568   -0.1550    5.6050 H   0  0  0  0  0  0
    0.1563    0.6979    5.7193 H   0  0  0  0  0  0
   -1.0954    2.4004    4.7968 H   0  0  0  0  0  0
   -0.4916    1.6872    3.3175 H   0  0  0  0  0  0
   -3.0198    0.6138    4.3767 H   0  0  0  0  0  0
  1  2  2  0  0  0
  2  3  1  0  0  0
  2 25  1  0  0  0
  3  4  1  0  0  0
  3 26  1  0  0  0
  3 27  1  0  0  0
  4  5  1  0  0  0
  4 28  1  0  0  0
  4 29  1  0  0  0
  5  6  2  0  0  0
  5 13  1  0  0  0
  6  7  1  0  0  0
  6 30  1  0  0  0
  7  8  2  0  0  0
  7 31  1  0  0  0
  8  9  1  0  0  0
  8 14  1  0  0  0
  9 10  1  0  0  0
  9 13  2  0  0  0
 10 11  2  0  0  0
 10 12  1  0  0  0
 13 32  1  0  0  0
 14 15  1  0  0  0
 15 16  1  0  0  0
 15 21  2  0  0  0
 16 17  2  0  0  0
 16 33  1  0  0  0
 17 18  1  0  0  0
 17 23  1  0  0  0
 18 19  2  0  0  0
 18 34  1  0  0  0
 19 20  1  0  0  0
 19 21  1  0  0  0
 21 22  1  0  0  0
 22 35  1  0  0  0
 23 24  1  0  0  0
 23 36  1  0  0  0
 23 37  1  0  0  0
 24 25  1  0  0  0
 24 38  1  0  0  0
 24 39  1  0  0  0
 25 40  1  0  0  0
M  CHG  2  10   1  12  -1
M  END
> <i_epik_Tot_Q>
0

> <i_epik_Tot_abs_Q>
2

> <i_f3d_flags>
0

> <i_lp_mmshare_version>
64135

> <i_m_source_file_index>
1

> <b_lp_Chiralities_Consistent>
1

> <r_epik_Charging_Adjusted_Penalty>
0.699178

> <r_epik_Ionization_Penalty>
0.699178

> <r_epik_Ionization_Penalty_Charging>
0

> <r_epik_Ionization_Penalty_Neutral>
0.699178

> <r_epik_State_Penalty>
0.699178

> <r_lp_Energy>
36.8087

> <r_lp_tautomer_probability>
1

> <s_epik_cmdline>
J2VwaWtfcHl0aG9uJywgJy1waCcsICc3LjAnLCAnLXRuJywgJzgnLCAnLW1hJywgJzIwMCcsICctaW1hZScsICc8aW5maWxlLm1hZT4nLCAnLW9tYWUnLCAnPG91dGZpbGUubWFlPic=

> <s_epik_input>
W0NIMl0xW0NIMl1DKD1PKVtOSF1bQ0gyXVtDSDJdYyhbY0hdYyhCciljMltPSF0pW2NIXWMyT2MoW2NIXVtjSF1jMTMpYyhbTitdKD1PKVtPLV0pW2NIXTM=

> <s_lp_Force_Field>
OPLS_2005

> <s_lp_Variant>
MCD00023-2

> <s_m_source_file>
MCD00023.smi

$$$$
MCD00024
                    3D
 Schrodinger Suite 2023-4.
 41 43  0  0  1  0            999 V2000
   -1.9718    3.0524    0.1968 O   0  0  0  0  0  0
   -1.7071    1.8553    0.2794 C   0  0  0  0  0  0
   -0.5009    1.3739   -0.0824 N   0  0  0  0  0  0
   -0.0226   -0.0096   -0.0621 C   0  0  2  0  0  0
    1.5003   -0.0687    0.0974 C   0  0  0  0  0  0
    1.9562   -0.9159    0.8965 O   0  0  0  0  0  0
    2.1843    0.7080   -0.6051 O   0  5  0  0  0  0
   -0.5523   -0.8304   -1.2602 C   0  0  0  0  0  0
   -0.8413   -2.2303   -0.8324 C   0  0  0  0  0  0
   -2.0213   -2.8064   -0.4462 C   0  0  0  0  0  0
   -1.7237   -4.0552    0.0312 N   0  0  0  0  0  0
   -0.4194   -4.3033   -0.1338 C   0  0  0  0  0  0
    0.1198   -3.1922   -0.6488 N   0  3  0  0  0  0
   -2.6634   -4.9913    0.6524 C   0  0  0  0  0  0
   -3.4962   -4.2760    1.6969 C   0  0  0  0  0  0
   -4.7652   -3.8857    1.5035 C   0  0  0  0  0  0
   -5.5420   -2.9928    2.4500 C   0  0  0  0  0  0
   -5.8758   -1.7613    1.8135 O   0  0  0  0  0  0
   -4.8442   -0.8995    1.5048 C   0  0  0  0  0  0
   -4.9145   -0.2045    0.2821 C   0  0  0  0  0  0
   -3.8854    0.6750   -0.1035 C   0  0  0  0  0  0
   -2.7710    0.8921    0.7343 C   0  0  0  0  0  0
   -2.7229    0.2418    1.9948 C   0  0  0  0  0  0
   -1.4559    0.5504    3.1338 Cl  0  0  0  0  0  0
   -3.7439   -0.6605    2.3617 C   0  0  0  0  0  0
    0.1795    2.0523   -0.3944 H   0  0  0  0  0  0
   -0.4147   -0.4608    0.8470 H   0  0  0  0  0  0
   -1.4758   -0.4019   -1.6508 H   0  0  0  0  0  0
    0.1572   -0.8344   -2.0890 H   0  0  0  0  0  0
   -3.0201   -2.3970   -0.4139 H   0  0  0  0  0  0
    0.1059   -5.2019    0.1362 H   0  0  0  0  0  0
   -3.2941   -5.4069   -0.1346 H   0  0  0  0  0  0
   -2.1094   -5.8102    1.1133 H   0  0  0  0  0  0
   -2.9793   -3.9789    2.5981 H   0  0  0  0  0  0
   -5.2619   -4.1354    0.5773 H   0  0  0  0  0  0
   -6.4717   -3.5015    2.7048 H   0  0  0  0  0  0
   -5.0108   -2.8462    3.3901 H   0  0  0  0  0  0
   -5.7565   -0.3612   -0.3760 H   0  0  0  0  0  0
   -3.9552    1.1840   -1.0543 H   0  0  0  0  0  0
   -3.6808   -1.1420    3.3253 H   0  0  0  0  0  0
    1.1080   -3.0623   -0.8284 H   0  0  0  0  0  0
  1  2  2  0  0  0
  2  3  1  0  0  0
  2 22  1  0  0  0
  3  4  1  0  0  0
  3 26  1  0  0  0
  4  5  1  0  0  0
  4  8  1  0  0  0
  4 27  1  0  0  0
  5  6  2  0  0  0
  5  7  1  0  0  0
  8  9  1  0  0  0
  8 28  1  0  0  0
  8 29  1  0  0  0
  9 10  2  0  0  0
  9 13  1  0  0  0
 10 11  1  0  0  0
 10 30  1  0  0  0
 11 12  1  0  0  0
 11 14  1  0  0  0
 12 13  2  0  0  0
 12 31  1  0  0  0
 13 41  1  0  0  0
 14 15  1  0  0  0
 14 32  1  0  0  0
 14 33  1  0  0  0
 15 16  2  0  0  0
 15 34  1  0  0  0
 16 17  1  0  0  0
 16 35  1  0  0  0
 17 18  1  0  0  0
 17 36  1  0  0  0
 17 37  1  0  0  0
 18 19  1  0  0  0
 19 20  2  0  0  0
 19 25  1  0  0  0
 20 21  1  0  0  0
 20 38  1  0  0  0
 21 22  2  0  0  0
 21 39  1  0  0  0
 22 23  1  0  0  0
 23 24  1  0  0  0
 23 25  2  0  0  0
 25 40  1  0  0  0
M  CHG  2   7  -1  13   1
M  END
> <i_epik_Tot_Q>
0

> <i_epik_Tot_abs_Q>
2

> <i_f3d_flags>
0

> <i_lp_mmshare_version>
64135

> <i_m_source_file_index>
1

> <b_lp_Chiralities_Consistent>
1

> <r_epik_Charging_Adjusted_Penalty>
0.160984

> <r_epik_Ionization_Penalty>
0.160985

> <r_epik_Ionization_Penalty_Charging>
0.000182355

> <r_epik_Ionization_Penalty_Neutral>
0.160803

> <r_epik_State_Penalty>
0.160802

> <r_lp_Energy>
18.771

> <r_lp_tautomer_probability>
1

> <s_epik_cmdline>
J2VwaWtfcHl0aG9uJywgJy1waCcsICc3LjAnLCAnLXRuJywgJzgnLCAnLW1hJywgJzIwMCcsICctaW1hZScsICc8aW5maWxlLm1hZT4nLCAnLW9tYWUnLCAnPG91dGZpbGUubWFlPic=

> <s_epik_input>
Tz1DKFtPSF0pW0NASF0oW0NIMl0xKVtOSF1DKD1PKWMoYyhDbClbY0hdMilbY0hdW2NIXWMyT1tDSDJdXFtDSF09W0NIXVxbQ0gyXW4oW2NIXWMxMylbY0hdbjM=

> <s_lp_Force_Field>
OPLS_2005

> <s_lp_Variant>
MCD00024-1

> <s_m_source_file>
MCD00024.smi

$$$$
MCD00024
                    3D
 Schrodinger Suite 2023-4.
 40 42  0  0  1  0            999 V2000
   -2.0058    3.0135    0.3987 O   0  0  0  0  0  0
   -1.6232    1.8543    0.5426 C   0  0  0  0  0  0
   -0.4827    1.4052   -0.0176 N   0  0  0  0  0  0
    0.0461    0.0381   -0.0255 C   0  0  2  0  0  0
    1.5781    0.0592   -0.0050 C   0  0  0  0  0  0
    2.1488   -0.5216    0.9441 O   0  0  0  0  0  0
    2.1543    0.6631   -0.9373 O   0  5  0  0  0  0
   -0.5672   -0.8012   -1.1741 C   0  0  0  0  0  0
   -0.8848   -2.2000   -0.7388 C   0  0  0  0  0  0
   -2.1053   -2.6907   -0.3427 C   0  0  0  0  0  0
   -1.8873   -3.9773    0.1277 N   0  0  0  0  0  0
   -0.5882   -4.2219   -0.0963 C   0  0  0  0  0  0
    0.0826   -3.1953   -0.6083 N   0  0  0  0  0  0
   -2.8764   -4.8417    0.7422 C   0  0  0  0  0  0
   -3.6034   -4.0937    1.8411 C   0  0  0  0  0  0
   -4.9026   -3.7511    1.8119 C   0  0  0  0  0  0
   -5.5821   -2.8511    2.8334 C   0  0  0  0  0  0
   -4.6669   -1.9850    3.5076 O   0  0  0  0  0  0
   -4.0093   -1.0103    2.7800 C   0  0  0  0  0  0
   -4.4184   -0.5558    1.5023 C   0  0  0  0  0  0
   -3.6457    0.3881    0.7986 C   0  0  0  0  0  0
   -2.4489    0.8909    1.3488 C   0  0  0  0  0  0
   -2.0629    0.4824    2.6499 C   0  0  0  0  0  0
   -0.6390    1.1041    3.4128 Cl  0  0  0  0  0  0
   -2.8444   -0.4588    3.3501 C   0  0  0  0  0  0
    0.0681    2.0781   -0.5312 H   0  0  0  0  0  0
   -0.2426   -0.4318    0.9144 H   0  0  0  0  0  0
   -1.4851   -0.3306   -1.5289 H   0  0  0  0  0  0
    0.0955   -0.8144   -2.0405 H   0  0  0  0  0  0
   -3.0752   -2.2199   -0.2998 H   0  0  0  0  0  0
   -0.1151   -5.1607    0.1516 H   0  0  0  0  0  0
   -3.5723   -5.1831   -0.0251 H   0  0  0  0  0  0
   -2.3821   -5.7183    1.1623 H   0  0  0  0  0  0
   -2.9822   -3.7494    2.6555 H   0  0  0  0  0  0
   -5.5215   -4.0847    0.9919 H   0  0  0  0  0  0
   -6.3814   -2.2789    2.3623 H   0  0  0  0  0  0
   -6.0684   -3.4863    3.5736 H   0  0  0  0  0  0
   -5.3100   -0.9342    1.0276 H   0  0  0  0  0  0
   -3.9623    0.7031   -0.1853 H   0  0  0  0  0  0
   -2.5302   -0.7840    4.3311 H   0  0  0  0  0  0
  1  2  2  0  0  0
  2  3  1  0  0  0
  2 22  1  0  0  0
  3  4  1  0  0  0
  3 26  1  0  0  0
  4  5  1  0  0  0
  4  8  1  0  0  0
  4 27  1  0  0  0
  5  6  2  0  0  0
  5  7  1  0  0  0
  8  9  1  0  0  0
  8 28  1  0  0  0
  8 29  1  0  0  0
  9 10  2  0  0  0
  9 13  1  0  0  0
 10 11  1  0  0  0
 10 30  1  0  0  0
 11 12  1  0  0  0
 11 14  1  0  0  0
 12 13  2  0  0  0
 12 31  1  0  0  0
 14 15  1  0  0  0
 14 32  1  0  0  0
 14 33  1  0  0  0
 15 16  2  0  0  0
 15 34  1  0  0  0
 16 17  1  0  0  0
 16 35  1  0  0  0
 17 18  1  0  0  0
 17 36  1  0  0  0
 17 37  1  0  0  0
 18 19  1  0  0  0
 19 20  2  0  0  0
 19 25  1  0  0  0
 20 21  1  0  0  0
 20 38  1  0  0  0
 21 22  2  0  0  0
 21 39  1  0  0  0
 22 23  1  0  0  0
 23 24  1  0  0  0
 23 25  2  0  0  0
 25 40  1  0  0  0
M  CHG  1   7  -1
M  END
> <i_epik_Tot_Q>
-1

> <i_epik_Tot_abs_Q>
1

> <i_f3d_flags>
0

> <i_lp_mmshare_version>
64135

> <i_m_source_file_index>
1

> <b_lp_Chiralities_Consistent>
1

> <r_epik_Charging_Adjusted_Penalty>
1.70282

> <r_epik_Ionization_Penalty>
0.851547

> <r_epik_Ionization_Penalty_Charging>
0.851547

> <r_epik_Ionization_Penalty_Neutral>
4.12585e-07

> <r_epik_State_Penalty>
0.851276

> <r_lp_Energy>
22.457

> <r_lp_tautomer_probability>
1

> <s_epik_cmdline>
J2VwaWtfcHl0aG9uJywgJy1waCcsICc3LjAnLCAnLXRuJywgJzgnLCAnLW1hJywgJzIwMCcsICctaW1hZScsICc8aW5maWxlLm1hZT4nLCAnLW9tYWUnLCAnPG91dGZpbGUubWFlPic=

> <s_epik_input>
Tz1DKFtPSF0pW0NASF0oW0NIMl0xKVtOSF1DKD1PKWMoYyhDbClbY0hdMilbY0hdW2NIXWMyT1tDSDJdXFtDSF09W0NIXVxbQ0gyXW4oW2NIXWMxMylbY0hdbjM=

> <s_lp_Force_Field>
OPLS_2005

> <s_lp_Variant>
MCD00024-2

> <s_m_source_file>
MCD00024.smi

$$$$
MCD00025
                    3D
 Schrodinger Suite 2023-4.
 41 43  0  0  1  0            999 V2000
   -1.5024    3.3137    0.9330 O   0  0  0  0  0  0
   -1.1770    2.1358    1.0629 C   0  0  0  0  0  0
   -0.5288    1.4731    0.0853 N   0  0  0  0  0  0
   -0.1474    0.0575    0.0124 C   0  0  2  0  0  0
    1.3782   -0.0762    0.0956 C   0  0  0  0  0  0
    1.8274   -0.9302    0.8904 O   0  0  0  0  0  0
    2.0674    0.6581   -0.6471 O   0  5  0  0  0  0
   -0.6092   -0.5193   -1.3459 C   0  0  0  0  0  0
   -2.0975   -0.6083   -1.4532 C   0  0  0  0  0  0
   -3.0616   -0.8626   -0.5118 C   0  0  0  0  0  0
   -4.2748   -0.7777   -1.1413 N   0  0  0  0  0  0
   -4.0929   -0.5386   -2.4445 C   0  0  0  0  0  0
   -2.7728   -0.4358   -2.6349 N   0  3  0  0  0  0
   -5.5904   -0.9252   -0.5174 C   0  0  0  0  0  0
   -5.7017   -0.0333    0.7000 C   0  0  0  0  0  0
   -5.6919   -0.4756    1.9668 C   0  0  0  0  0  0
   -5.6591    0.4286    3.1824 C   0  0  0  0  0  0
   -4.5973    0.0836    4.0668 O   0  0  0  0  0  0
   -3.2961    0.4200    3.7477 C   0  0  0  0  0  0
   -2.3056    0.0540    4.6795 C   0  0  0  0  0  0
   -0.9548    0.3790    4.4611 C   0  0  0  0  0  0
   -0.5659    1.0655    3.2959 C   0  0  0  0  0  0
    1.0946    1.5212    3.1285 Cl  0  0  0  0  0  0
   -1.5402    1.4038    2.3239 C   0  0  0  0  0  0
   -2.8991    1.1020    2.5695 C   0  0  0  0  0  0
   -0.2746    2.0203   -0.7242 H   0  0  0  0  0  0
   -0.5883   -0.5219    0.8244 H   0  0  0  0  0  0
   -0.2258    0.0836   -2.1712 H   0  0  0  0  0  0
   -0.2078   -1.5246   -1.4834 H   0  0  0  0  0  0
   -2.9739   -1.0626    0.5465 H   0  0  0  0  0  0
   -4.8574   -0.4325   -3.1935 H   0  0  0  0  0  0
   -6.3656   -0.6664   -1.2398 H   0  0  0  0  0  0
   -5.7170   -1.9739   -0.2459 H   0  0  0  0  0  0
   -5.7096    1.0301    0.5088 H   0  0  0  0  0  0
   -5.6550   -1.5372    2.1636 H   0  0  0  0  0  0
   -5.6218    1.4826    2.9031 H   0  0  0  0  0  0
   -6.5948    0.2905    3.7237 H   0  0  0  0  0  0
   -2.5869   -0.4662    5.5832 H   0  0  0  0  0  0
   -0.2147    0.1144    5.2020 H   0  0  0  0  0  0
   -3.6266    1.4045    1.8330 H   0  0  0  0  0  0
   -2.3345   -0.2435   -3.5270 H   0  0  0  0  0  0
  1  2  2  0  0  0
  2  3  1  0  0  0
  2 24  1  0  0  0
  3  4  1  0  0  0
  3 26  1  0  0  0
  4  5  1  0  0  0
  4  8  1  0  0  0
  4 27  1  0  0  0
  5  6  2  0  0  0
  5  7  1  0  0  0
  8  9  1  0  0  0
  8 28  1  0  0  0
  8 29  1  0  0  0
  9 10  2  0  0  0
  9 13  1  0  0  0
 10 11  1  0  0  0
 10 30  1  0  0  0
 11 12  1  0  0  0
 11 14  1  0  0  0
 12 13  2  0  0  0
 12 31  1  0  0  0
 13 41  1  0  0  0
 14 15  1  0  0  0
 14 32  1  0  0  0
 14 33  1  0  0  0
 15 16  2  0  0  0
 15 34  1  0  0  0
 16 17  1  0  0  0
 16 35  1  0  0  0
 17 18  1  0  0  0
 17 36  1  0  0  0
 17 37  1  0  0  0
 18 19  1  0  0  0
 19 20  1  0  0  0
 19 25  2  0  0  0
 20 21  2  0  0  0
 20 38  1  0  0  0
 21 22  1  0  0  0
 21 39  1  0  0  0
 22 23  1  0  0  0
 22 24  2  0  0  0
 24 25  1  0  0  0
 25 40  1  0  0  0
M  CHG  2   7  -1  13   1
M  END
> <i_epik_Tot_Q>
0

> <i_epik_Tot_abs_Q>
2

> <i_f3d_flags>
0

> <i_lp_mmshare_version>
64135

> <i_m_source_file_index>
1

> <b_lp_Chiralities_Consistent>
1

> <r_epik_Charging_Adjusted_Penalty>
0.201044

> <r_epik_Ionization_Penalty>
0.201045

> <r_epik_Ionization_Penalty_Charging>
6.34842e-05

> <r_epik_Ionization_Penalty_Neutral>
0.200982

> <r_epik_State_Penalty>
0.200981

> <r_lp_Energy>
16.1726

> <r_lp_tautomer_probability>
1

> <s_epik_cmdline>
J2VwaWtfcHl0aG9uJywgJy1waCcsICc3LjAnLCAnLXRuJywgJzgnLCAnLW1hJywgJzIwMCcsICctaW1hZScsICc8aW5maWxlLm1hZT4nLCAnLW9tYWUnLCAnPG91dGZpbGUubWFlPic=

> <s_epik_input>
Tz1DKFtPSF0pW0NASF0oW0NIMl0xKVtOSF1DKD1PKWMoW2NIXTIpYyhDbClbY0hdW2NIXWMyT1tDSDJdXFtDSF09W0NIXVxbQ0gyXW4oW2NIXWMxMylbY0hdbjM=

> <s_lp_Force_Field>
OPLS_2005

> <s_lp_Variant>
MCD00025-1

> <s_m_source_file>
MCD00025.smi

$$$$
MCD00025
                    3D
 Schrodinger Suite 2023-4.
 40 42  0  0  1  0            999 V2000
   -1.3360    3.2913    0.9148 O   0  0  0  0  0  0
   -1.0918    2.0894    1.0016 C   0  0  0  0  0  0
   -0.3150    1.4771    0.0870 N   0  0  0  0  0  0
    0.0348    0.0646   -0.0964 C   0  0  2  0  0  0
    1.5622   -0.0745   -0.1495 C   0  0  0  0  0  0
    2.0846   -0.9332    0.5944 O   0  0  0  0  0  0
    2.1818    0.6676   -0.9444 O   0  5  0  0  0  0
   -0.6130   -0.4784   -1.3927 C   0  0  0  0  0  0
   -1.9786   -1.0514   -1.1697 C   0  0  0  0  0  0
   -3.1898   -0.4028   -1.0995 C   0  0  0  0  0  0
   -4.1377   -1.3710   -0.7945 N   0  0  0  0  0  0
   -3.4675   -2.5292   -0.7359 C   0  0  0  0  0  0
   -2.1625   -2.4143   -0.9401 N   0  0  0  0  0  0
   -5.5390   -1.1493   -0.5136 C   0  0  0  0  0  0
   -5.6700   -0.5993    0.8861 C   0  0  0  0  0  0
   -6.0694    0.6469    1.1835 C   0  0  0  0  0  0
   -5.9944    1.2652    2.5687 C   0  0  0  0  0  0
   -5.1432    0.5435    3.4602 O   0  0  0  0  0  0
   -3.7711    0.6066    3.2932 C   0  0  0  0  0  0
   -2.9817   -0.0616    4.2483 C   0  0  0  0  0  0
   -1.5775   -0.0230    4.1742 C   0  0  0  0  0  0
   -0.9337    0.6722    3.1326 C   0  0  0  0  0  0
    0.7921    0.7834    3.1752 Cl  0  0  0  0  0  0
   -1.7090    1.3017    2.1252 C   0  0  0  0  0  0
   -3.1180    1.2859    2.2333 C   0  0  0  0  0  0
    0.0809    2.0859   -0.6145 H   0  0  0  0  0  0
   -0.3126   -0.5372    0.7439 H   0  0  0  0  0  0
   -0.6488    0.3021   -2.1539 H   0  0  0  0  0  0
    0.0171   -1.2599   -1.8216 H   0  0  0  0  0  0
   -3.4407    0.6436   -1.1945 H   0  0  0  0  0  0
   -3.9401   -3.4721   -0.5027 H   0  0  0  0  0  0
   -5.9461   -0.4542   -1.2492 H   0  0  0  0  0  0
   -6.0842   -2.0899   -0.5991 H   0  0  0  0  0  0
   -5.3104   -1.2476    1.6721 H   0  0  0  0  0  0
   -6.4079    1.3003    0.3928 H   0  0  0  0  0  0
   -5.6704    2.3042    2.4950 H   0  0  0  0  0  0
   -7.0000    1.2897    2.9880 H   0  0  0  0  0  0
   -3.4572   -0.5912    5.0605 H   0  0  0  0  0  0
   -0.9897   -0.5117    4.9374 H   0  0  0  0  0  0
   -3.6870    1.8091    1.4802 H   0  0  0  0  0  0
  1  2  2  0  0  0
  2  3  1  0  0  0
  2 24  1  0  0  0
  3  4  1  0  0  0
  3 26  1  0  0  0
  4  5  1  0  0  0
  4  8  1  0  0  0
  4 27  1  0  0  0
  5  6  2  0  0  0
  5  7  1  0  0  0
  8  9  1  0  0  0
  8 28  1  0  0  0
  8 29  1  0  0  0
  9 10  2  0  0  0
  9 13  1  0  0  0
 10 11  1  0  0  0
 10 30  1  0  0  0
 11 12  1  0  0  0
 11 14  1  0  0  0
 12 13  2  0  0  0
 12 31  1  0  0  0
 14 15  1  0  0  0
 14 32  1  0  0  0
 14 33  1  0  0  0
 15 16  2  0  0  0
 15 34  1  0  0  0
 16 17  1  0  0  0
 16 35  1  0  0  0
 17 18  1  0  0  0
 17 36  1  0  0  0
 17 37  1  0  0  0
 18 19  1  0  0  0
 19 20  1  0  0  0
 19 25  2  0  0  0
 20 21  2  0  0  0
 20 38  1  0  0  0
 21 22  1  0  0  0
 21 39  1  0  0  0
 22 23  1  0  0  0
 22 24  2  0  0  0
 24 25  1  0  0  0
 25 40  1  0  0  0
M  CHG  1   7  -1
M  END
> <i_epik_Tot_Q>
-1

> <i_epik_Tot_abs_Q>
1

> <i_f3d_flags>
0

> <i_lp_mmshare_version>
64135

> <i_m_source_file_index>
1

> <b_lp_Chiralities_Consistent>
1

> <r_epik_Charging_Adjusted_Penalty>
1.47649

> <r_epik_Ionization_Penalty>
0.738295

> <r_epik_Ionization_Penalty_Charging>
0.738294

> <r_epik_Ionization_Penalty_Neutral>
1.04645e-06

> <r_epik_State_Penalty>
0.7382

> <r_lp_Energy>
20.9201

> <r_lp_tautomer_probability>
1

> <s_epik_cmdline>
J2VwaWtfcHl0aG9uJywgJy1waCcsICc3LjAnLCAnLXRuJywgJzgnLCAnLW1hJywgJzIwMCcsICctaW1hZScsICc8aW5maWxlLm1hZT4nLCAnLW9tYWUnLCAnPG91dGZpbGUubWFlPic=

> <s_epik_input>
Tz1DKFtPSF0pW0NASF0oW0NIMl0xKVtOSF1DKD1PKWMoW2NIXTIpYyhDbClbY0hdW2NIXWMyT1tDSDJdXFtDSF09W0NIXVxbQ0gyXW4oW2NIXWMxMylbY0hdbjM=

> <s_lp_Force_Field>
OPLS_2005

> <s_lp_Variant>
MCD00025-2

> <s_m_source_file>
MCD00025.smi

$$$$
MCD00026
                    3D
 Schrodinger Suite 2023-4.
 41 43  0  0  1  0            999 V2000
   -1.5497    3.3159   -0.9179 O   0  0  0  0  0  0
   -1.2613    2.1267   -1.0325 C   0  0  0  0  0  0
   -0.5240    1.4934   -0.0987 N   0  0  0  0  0  0
   -0.1359    0.0813    0.0005 C   0  0  1  0  0  0
    1.3903   -0.0434   -0.0864 C   0  0  0  0  0  0
    1.8430   -0.9310   -0.8414 O   0  0  0  0  0  0
    2.0768    0.7296    0.6188 O   0  5  0  0  0  0
   -0.6017   -0.4873    1.3607 C   0  0  0  0  0  0
   -2.0834   -0.6686    1.4369 C   0  0  0  0  0  0
   -2.9995   -1.0682    0.4981 C   0  0  0  0  0  0
   -4.2347   -1.0290    1.0929 N   0  0  0  0  0  0
   -4.1040   -0.6785    2.3769 C   0  0  0  0  0  0
   -2.8016   -0.4582    2.5861 N   0  3  0  0  0  0
   -5.5316   -1.3223    0.4740 C   0  0  0  0  0  0
   -5.5653   -0.8429   -0.9604 C   0  0  0  0  0  0
   -6.1489    0.2954   -1.3678 C   0  0  0  0  0  0
   -6.0364    0.8803   -2.7657 C   0  0  0  0  0  0
   -5.0876    0.2079   -3.5936 O   0  0  0  0  0  0
   -3.7375    0.4482   -3.4177 C   0  0  0  0  0  0
   -2.8666   -0.0800   -4.3898 C   0  0  0  0  0  0
   -1.4791    0.1365   -4.3063 C   0  0  0  0  0  0
   -0.9331    0.8656   -3.2332 C   0  0  0  0  0  0
    0.7669    1.1840   -3.2430 Cl  0  0  0  0  0  0
   -1.7857    1.3534   -2.2108 C   0  0  0  0  0  0
   -3.1817    1.1691   -2.3303 C   0  0  0  0  0  0
   -0.1801    2.0733    0.6530 H   0  0  0  0  0  0
   -0.5659   -0.5111   -0.8074 H   0  0  0  0  0  0
   -0.1457   -1.4633    1.5345 H   0  0  0  0  0  0
   -0.2732    0.1560    2.1790 H   0  0  0  0  0  0
   -2.8613   -1.3429   -0.5379 H   0  0  0  0  0  0
   -4.8940   -0.5754    3.0993 H   0  0  0  0  0  0
   -5.6985   -2.3990    0.5150 H   0  0  0  0  0  0
   -6.3154   -0.8346    1.0559 H   0  0  0  0  0  0
   -4.9909   -1.4300   -1.6618 H   0  0  0  0  0  0
   -6.7004    0.8911   -0.6551 H   0  0  0  0  0  0
   -7.0150    0.8107   -3.2406 H   0  0  0  0  0  0
   -5.8032    1.9443   -2.7048 H   0  0  0  0  0  0
   -3.2684   -0.6380   -5.2228 H   0  0  0  0  0  0
   -0.8315   -0.2460   -5.0815 H   0  0  0  0  0  0
   -3.8153    1.5809   -1.5598 H   0  0  0  0  0  0
   -2.4036   -0.1659    3.4697 H   0  0  0  0  0  0
  1  2  2  0  0  0
  2  3  1  0  0  0
  2 24  1  0  0  0
  3  4  1  0  0  0
  3 26  1  0  0  0
  4  5  1  0  0  0
  4  8  1  0  0  0
  4 27  1  0  0  0
  5  6  2  0  0  0
  5  7  1  0  0  0
  8  9  1  0  0  0
  8 28  1  0  0  0
  8 29  1  0  0  0
  9 10  2  0  0  0
  9 13  1  0  0  0
 10 11  1  0  0  0
 10 30  1  0  0  0
 11 12  1  0  0  0
 11 14  1  0  0  0
 12 13  2  0  0  0
 12 31  1  0  0  0
 13 41  1  0  0  0
 14 15  1  0  0  0
 14 32  1  0  0  0
 14 33  1  0  0  0
 15 16  2  0  0  0
 15 34  1  0  0  0
 16 17  1  0  0  0
 16 35  1  0  0  0
 17 18  1  0  0  0
 17 36  1  0  0  0
 17 37  1  0  0  0
 18 19  1  0  0  0
 19 20  1  0  0  0
 19 25  2  0  0  0
 20 21  2  0  0  0
 20 38  1  0  0  0
 21 22  1  0  0  0
 21 39  1  0  0  0
 22 23  1  0  0  0
 22 24  2  0  0  0
 24 25  1  0  0  0
 25 40  1  0  0  0
M  CHG  2   7  -1  13   1
M  END
> <i_epik_Tot_Q>
0

> <i_epik_Tot_abs_Q>
2

> <i_f3d_flags>
0

> <i_lp_mmshare_version>
64135

> <i_m_source_file_index>
1

> <b_lp_Chiralities_Consistent>
1

> <r_epik_Charging_Adjusted_Penalty>
0.201044

> <r_epik_Ionization_Penalty>
0.201045

> <r_epik_Ionization_Penalty_Charging>
6.34842e-05

> <r_epik_Ionization_Penalty_Neutral>
0.200982

> <r_epik_State_Penalty>
0.200981

> <r_lp_Energy>
18.8039

> <r_lp_tautomer_probability>
1

> <s_epik_cmdline>
J2VwaWtfcHl0aG9uJywgJy1waCcsICc3LjAnLCAnLXRuJywgJzgnLCAnLW1hJywgJzIwMCcsICctaW1hZScsICc8aW5maWxlLm1hZT4nLCAnLW9tYWUnLCAnPG91dGZpbGUubWFlPic=

> <s_epik_input>
Tz1DKFtPSF0pW0NAQEhdKFtDSDJdMSlbTkhdQyg9TyljKFtjSF0yKWMoQ2wpW2NIXVtjSF1jMk9bQ0gyXVxbQ0hdPVtDSF1cW0NIMl1uKFtjSF1jMTMpW2NIXW4z

> <s_lp_Force_Field>
OPLS_2005

> <s_lp_Variant>
MCD00026-1

> <s_m_source_file>
MCD00026.smi

$$$$
MCD00026
                    3D
 Schrodinger Suite 2023-4.
 40 42  0  0  1  0            999 V2000
   -1.5316    3.2239   -0.6962 O   0  0  0  0  0  0
   -1.1706    2.0666   -0.8992 C   0  0  0  0  0  0
   -0.4173    1.3987   -0.0023 N   0  0  0  0  0  0
   -0.0184   -0.0143    0.0120 C   0  0  1  0  0  0
    1.5104   -0.1317   -0.0315 C   0  0  0  0  0  0
    1.9922   -0.9617   -0.8333 O   0  0  0  0  0  0
    2.1728    0.5947    0.7431 O   0  5  0  0  0  0
   -0.5573   -0.7045    1.2853 C   0  0  0  0  0  0
   -2.0535   -0.7672    1.3121 C   0  0  0  0  0  0
   -2.8862   -1.5365    0.5333 C   0  0  0  0  0  0
   -4.1807   -1.1268    0.8187 N   0  0  0  0  0  0
   -4.0637   -0.2015    1.7808 C   0  0  0  0  0  0
   -2.8122    0.0791    2.1190 N   0  0  0  0  0  0
   -5.3887   -1.5512    0.1449 C   0  0  0  0  0  0
   -5.3598   -1.0306   -1.2732 C   0  0  0  0  0  0
   -5.9726    0.0939   -1.6757 C   0  0  0  0  0  0
   -5.7833    0.7549   -3.0299 C   0  0  0  0  0  0
   -4.7503    0.1649   -3.8180 O   0  0  0  0  0  0
   -3.4286    0.4664   -3.5462 C   0  0  0  0  0  0
   -2.4807    0.0743   -4.5107 C   0  0  0  0  0  0
   -1.1153    0.3613   -4.3355 C   0  0  0  0  0  0
   -0.6676    1.0241   -3.1775 C   0  0  0  0  0  0
    1.0098    1.4336   -3.0688 Cl  0  0  0  0  0  0
   -1.5966    1.3734   -2.1646 C   0  0  0  0  0  0
   -2.9718    1.1203   -2.3727 C   0  0  0  0  0  0
   -0.1265    1.9240    0.8093 H   0  0  0  0  0  0
   -0.4173   -0.5426   -0.8547 H   0  0  0  0  0  0
   -0.1590   -1.7184    1.3465 H   0  0  0  0  0  0
   -0.1883   -0.1884    2.1734 H   0  0  0  0  0  0
   -2.6667   -2.2714   -0.2271 H   0  0  0  0  0  0
   -4.9111    0.3137    2.2088 H   0  0  0  0  0  0
   -5.4457   -2.6400    0.1483 H   0  0  0  0  0  0
   -6.2569   -1.1651    0.6810 H   0  0  0  0  0  0
   -4.6965   -1.5522   -1.9476 H   0  0  0  0  0  0
   -6.6010    0.6291   -0.9789 H   0  0  0  0  0  0
   -6.7215    0.6770   -3.5792 H   0  0  0  0  0  0
   -5.5957    1.8213   -2.8960 H   0  0  0  0  0  0
   -2.8069   -0.4317   -5.4074 H   0  0  0  0  0  0
   -0.4084    0.0838   -5.1037 H   0  0  0  0  0  0
   -3.6656    1.4244   -1.6038 H   0  0  0  0  0  0
  1  2  2  0  0  0
  2  3  1  0  0  0
  2 24  1  0  0  0
  3  4  1  0  0  0
  3 26  1  0  0  0
  4  5  1  0  0  0
  4  8  1  0  0  0
  4 27  1  0  0  0
  5  6  2  0  0  0
  5  7  1  0  0  0
  8  9  1  0  0  0
  8 28  1  0  0  0
  8 29  1  0  0  0
  9 10  2  0  0  0
  9 13  1  0  0  0
 10 11  1  0  0  0
 10 30  1  0  0  0
 11 12  1  0  0  0
 11 14  1  0  0  0
 12 13  2  0  0  0
 12 31  1  0  0  0
 14 15  1  0  0  0
 14 32  1  0  0  0
 14 33  1  0  0  0
 15 16  2  0  0  0
 15 34  1  0  0  0
 16 17  1  0  0  0
 16 35  1  0  0  0
 17 18  1  0  0  0
 17 36  1  0  0  0
 17 37  1  0  0  0
 18 19  1  0  0  0
 19 20  1  0  0  0
 19 25  2  0  0  0
 20 21  2  0  0  0
 20 38  1  0  0  0
 21 22  1  0  0  0
 21 39  1  0  0  0
 22 23  1  0  0  0
 22 24  2  0  0  0
 24 25  1  0  0  0
 25 40  1  0  0  0
M  CHG  1   7  -1
M  END
> <i_epik_Tot_Q>
-1

> <i_epik_Tot_abs_Q>
1

> <i_f3d_flags>
0

> <i_lp_mmshare_version>
64135

> <i_m_source_file_index>
1

> <b_lp_Chiralities_Consistent>
1

> <r_epik_Charging_Adjusted_Penalty>
1.47649

> <r_epik_Ionization_Penalty>
0.738295

> <r_epik_Ionization_Penalty_Charging>
0.738294

> <r_epik_Ionization_Penalty_Neutral>
1.04645e-06

> <r_epik_State_Penalty>
0.7382

> <r_lp_Energy>
20.4935

> <r_lp_tautomer_probability>
1

> <s_epik_cmdline>
J2VwaWtfcHl0aG9uJywgJy1waCcsICc3LjAnLCAnLXRuJywgJzgnLCAnLW1hJywgJzIwMCcsICctaW1hZScsICc8aW5maWxlLm1hZT4nLCAnLW9tYWUnLCAnPG91dGZpbGUubWFlPic=

> <s_epik_input>
Tz1DKFtPSF0pW0NAQEhdKFtDSDJdMSlbTkhdQyg9TyljKFtjSF0yKWMoQ2wpW2NIXVtjSF1jMk9bQ0gyXVxbQ0hdPVtDSF1cW0NIMl1uKFtjSF1jMTMpW2NIXW4z

> <s_lp_Force_Field>
OPLS_2005

> <s_lp_Variant>
MCD00026-2

> <s_m_source_file>
MCD00026.smi

$$$$
MCD00027
                    3D
 Schrodinger Suite 2023-4.
 43 45  0  0  1  0            999 V2000
   -1.4512    3.1988    0.7674 O   0  0  0  0  0  0
   -1.2651    1.9903    0.8945 C   0  0  0  0  0  0
   -0.6564    1.2793   -0.0724 N   0  0  0  0  0  0
   -0.2391   -0.1255   -0.0802 C   0  0  2  0  0  0
    1.2824   -0.1869    0.0973 C   0  0  0  0  0  0
    1.7114   -0.8369    1.0750 O   0  0  0  0  0  0
    1.9896    0.4125   -0.7433 O   0  5  0  0  0  0
   -0.6153   -0.7506   -1.4427 C   0  0  0  0  0  0
   -2.0981   -0.8251   -1.6147 C   0  0  0  0  0  0
   -2.9991   -1.8220   -1.3374 C   0  0  0  0  0  0
   -4.2484   -1.3145   -1.5870 N   0  0  0  0  0  0
   -4.1436   -0.0712   -2.0687 C   0  0  0  0  0  0
   -2.8425    0.2280   -2.0814 N   0  3  0  0  0  0
   -5.5421   -1.9828   -1.4093 C   0  0  0  0  0  0
   -5.7021   -2.6538   -0.0316 C   0  0  0  0  0  0
   -5.4236   -1.7374    1.1808 C   0  0  0  0  0  0
   -4.2309   -2.2173    2.0256 C   0  0  0  0  0  0
   -4.0789   -1.4405    3.2078 O   0  0  0  0  0  0
   -3.1769   -0.3980    3.2133 C   0  0  0  0  0  0
   -2.7251    0.0396    4.4726 C   0  0  0  0  0  0
   -1.7846    1.0792    4.5763 C   0  0  0  0  0  0
   -1.2848    1.7060    3.4197 C   0  0  0  0  0  0
   -0.1143    2.9665    3.6153 Cl  0  0  0  0  0  0
   -1.7355    1.2901    2.1411 C   0  0  0  0  0  0
   -2.6915    0.2500    2.0505 C   0  0  0  0  0  0
   -0.3558    1.8084   -0.8779 H   0  0  0  0  0  0
   -0.6972   -0.7087    0.7170 H   0  0  0  0  0  0
   -0.1893   -0.1816   -2.2709 H   0  0  0  0  0  0
   -0.2120   -1.7615   -1.5187 H   0  0  0  0  0  0
   -2.8454   -2.8188   -0.9502 H   0  0  0  0  0  0
   -4.9495    0.5741   -2.3697 H   0  0  0  0  0  0
   -6.3322   -1.2437   -1.5519 H   0  0  0  0  0  0
   -5.6460   -2.7192   -2.2067 H   0  0  0  0  0  0
   -6.7175   -3.0442    0.0451 H   0  0  0  0  0  0
   -5.0582   -3.5332    0.0112 H   0  0  0  0  0  0
   -5.2770   -0.7044    0.8654 H   0  0  0  0  0  0
   -6.3098   -1.7215    1.8162 H   0  0  0  0  0  0
   -4.4200   -3.2410    2.3499 H   0  0  0  0  0  0
   -3.3098   -2.2634    1.4444 H   0  0  0  0  0  0
   -3.0923   -0.4368    5.3699 H   0  0  0  0  0  0
   -1.4408    1.3938    5.5507 H   0  0  0  0  0  0
   -3.0476   -0.0402    1.0743 H   0  0  0  0  0  0
   -2.4614    1.1192   -2.3740 H   0  0  0  0  0  0
  1  2  2  0  0  0
  2  3  1  0  0  0
  2 24  1  0  0  0
  3  4  1  0  0  0
  3 26  1  0  0  0
  4  5  1  0  0  0
  4  8  1  0  0  0
  4 27  1  0  0  0
  5  6  2  0  0  0
  5  7  1  0  0  0
  8  9  1  0  0  0
  8 28  1  0  0  0
  8 29  1  0  0  0
  9 10  2  0  0  0
  9 13  1  0  0  0
 10 11  1  0  0  0
 10 30  1  0  0  0
 11 12  1  0  0  0
 11 14  1  0  0  0
 12 13  2  0  0  0
 12 31  1  0  0  0
 13 43  1  0  0  0
 14 15  1  0  0  0
 14 32  1  0  0  0
 14 33  1  0  0  0
 15 16  1  0  0  0
 15 34  1  0  0  0
 15 35  1  0  0  0
 16 17  1  0  0  0
 16 36  1  0  0  0
 16 37  1  0  0  0
 17 18  1  0  0  0
 17 38  1  0  0  0
 17 39  1  0  0  0
 18 19  1  0  0  0
 19 20  1  0  0  0
 19 25  2  0  0  0
 20 21  2  0  0  0
 20 40  1  0  0  0
 21 22  1  0  0  0
 21 41  1  0  0  0
 22 23  1  0  0  0
 22 24  2  0  0  0
 24 25  1  0  0  0
 25 42  1  0  0  0
M  CHG  2   7  -1  13   1
M  END
> <i_epik_Tot_Q>
0

> <i_epik_Tot_abs_Q>
2

> <i_f3d_flags>
0

> <i_lp_mmshare_version>
64135

> <i_m_source_file_index>
1

> <b_lp_Chiralities_Consistent>
1

> <r_epik_Charging_Adjusted_Penalty>
0.129097

> <r_epik_Ionization_Penalty>
0.129098

> <r_epik_Ionization_Penalty_Charging>
6.34842e-05

> <r_epik_Ionization_Penalty_Neutral>
0.129034

> <r_epik_State_Penalty>
0.129033

> <r_lp_Energy>
22.4544

> <r_lp_tautomer_probability>
1

> <s_epik_cmdline>
J2VwaWtfcHl0aG9uJywgJy1waCcsICc3LjAnLCAnLXRuJywgJzgnLCAnLW1hJywgJzIwMCcsICctaW1hZScsICc8aW5maWxlLm1hZT4nLCAnLW9tYWUnLCAnPG91dGZpbGUubWFlPic=

> <s_epik_input>
Tz1DKFtPSF0pW0NASF0oW0NIMl0xKVtOSF1DKD1PKWMoW2NIXTIpYyhDbClbY0hdW2NIXWMyT1tDSDJdW0NIMl1bQ0gyXVtDSDJdbihbY0hdYzEzKVtjSF1uMw==

> <s_lp_Force_Field>
OPLS_2005

> <s_lp_Variant>
MCD00027-1

> <s_m_source_file>
MCD00027.smi

$$$$
MCD00027
                    3D
 Schrodinger Suite 2023-4.
 42 44  0  0  1  0            999 V2000
   -1.2587    3.2949    0.8301 O   0  0  0  0  0  0
   -1.0813    2.0854    0.9639 C   0  0  0  0  0  0
   -0.5236    1.3543   -0.0189 N   0  0  0  0  0  0
   -0.1165   -0.0534   -0.0240 C   0  0  2  0  0  0
    1.4095   -0.1265    0.1174 C   0  0  0  0  0  0
    1.8561   -0.7507    1.1045 O   0  0  0  0  0  0
    2.1051    0.4422   -0.7541 O   0  5  0  0  0  0
   -0.5419   -0.6906   -1.3671 C   0  0  0  0  0  0
   -2.0346   -0.7511   -1.5101 C   0  0  0  0  0  0
   -2.8942   -1.7677   -1.1603 C   0  0  0  0  0  0
   -4.1816   -1.2865   -1.3670 N   0  0  0  0  0  0
   -4.0265   -0.0603   -1.8835 C   0  0  0  0  0  0
   -2.7659    0.3334   -1.9924 N   0  0  0  0  0  0
   -5.4364   -1.9713   -1.1145 C   0  0  0  0  0  0
   -5.5121   -2.6133    0.2841 C   0  0  0  0  0  0
   -5.2005   -1.6627    1.4617 C   0  0  0  0  0  0
   -3.9776   -2.1136    2.2786 C   0  0  0  0  0  0
   -3.7969   -1.3104    3.4392 O   0  0  0  0  0  0
   -2.9009   -0.2640    3.3943 C   0  0  0  0  0  0
   -2.4055    0.1972    4.6284 C   0  0  0  0  0  0
   -1.4650    1.2404    4.6792 C   0  0  0  0  0  0
   -1.0078    1.8466    3.4943 C   0  0  0  0  0  0
    0.1677    3.1108    3.6266 Cl  0  0  0  0  0  0
   -1.5035    1.4076    2.2403 C   0  0  0  0  0  0
   -2.4613    0.3656    2.2038 C   0  0  0  0  0  0
   -0.2778    1.8622   -0.8560 H   0  0  0  0  0  0
   -0.5586   -0.6248    0.7899 H   0  0  0  0  0  0
   -0.1131   -0.1377   -2.2048 H   0  0  0  0  0  0
   -0.1329   -1.6997   -1.4381 H   0  0  0  0  0  0
   -2.7006   -2.7481   -0.7508 H   0  0  0  0  0  0
   -4.8577    0.5668   -2.1710 H   0  0  0  0  0  0
   -6.2502   -1.2540   -1.2304 H   0  0  0  0  0  0
   -5.5738   -2.7298   -1.8857 H   0  0  0  0  0  0
   -6.5113   -3.0285    0.4189 H   0  0  0  0  0  0
   -4.8425   -3.4739    0.3131 H   0  0  0  0  0  0
   -5.0682   -0.6384    1.1140 H   0  0  0  0  0  0
   -6.0662   -1.6319    2.1243 H   0  0  0  0  0  0
   -4.1452   -3.1321    2.6297 H   0  0  0  0  0  0
   -3.0753   -2.1630    1.6683 H   0  0  0  0  0  0
   -2.7382   -0.2645    5.5464 H   0  0  0  0  0  0
   -1.0875    1.5730    5.6348 H   0  0  0  0  0  0
   -2.8524    0.0578    1.2461 H   0  0  0  0  0  0
  1  2  2  0  0  0
  2  3  1  0  0  0
  2 24  1  0  0  0
  3  4  1  0  0  0
  3 26  1  0  0  0
  4  5  1  0  0  0
  4  8  1  0  0  0
  4 27  1  0  0  0
  5  6  2  0  0  0
  5  7  1  0  0  0
  8  9  1  0  0  0
  8 28  1  0  0  0
  8 29  1  0  0  0
  9 10  2  0  0  0
  9 13  1  0  0  0
 10 11  1  0  0  0
 10 30  1  0  0  0
 11 12  1  0  0  0
 11 14  1  0  0  0
 12 13  2  0  0  0
 12 31  1  0  0  0
 14 15  1  0  0  0
 14 32  1  0  0  0
 14 33  1  0  0  0
 15 16  1  0  0  0
 15 34  1  0  0  0
 15 35  1  0  0  0
 16 17  1  0  0  0
 16 36  1  0  0  0
 16 37  1  0  0  0
 17 18  1  0  0  0
 17 38  1  0  0  0
 17 39  1  0  0  0
 18 19  1  0  0  0
 19 20  1  0  0  0
 19 25  2  0  0  0
 20 21  2  0  0  0
 20 40  1  0  0  0
 21 22  1  0  0  0
 21 41  1  0  0  0
 22 23  1  0  0  0
 22 24  2  0  0  0
 24 25  1  0  0  0
 25 42  1  0  0  0
M  CHG  1   7  -1
M  END
> <i_epik_Tot_Q>
-1

> <i_epik_Tot_abs_Q>
1

> <i_f3d_flags>
0

> <i_lp_mmshare_version>
64135

> <i_m_source_file_index>
1

> <b_lp_Chiralities_Consistent>
1

> <r_epik_Charging_Adjusted_Penalty>
1.93299

> <r_epik_Ionization_Penalty>
0.966542

> <r_epik_Ionization_Penalty_Charging>
0.966542

> <r_epik_Ionization_Penalty_Neutral>
7.25358e-07

> <r_epik_State_Penalty>
0.966447

> <r_lp_Energy>
23.074

> <r_lp_tautomer_probability>
1

> <s_epik_cmdline>
J2VwaWtfcHl0aG9uJywgJy1waCcsICc3LjAnLCAnLXRuJywgJzgnLCAnLW1hJywgJzIwMCcsICctaW1hZScsICc8aW5maWxlLm1hZT4nLCAnLW9tYWUnLCAnPG91dGZpbGUubWFlPic=

> <s_epik_input>
Tz1DKFtPSF0pW0NASF0oW0NIMl0xKVtOSF1DKD1PKWMoW2NIXTIpYyhDbClbY0hdW2NIXWMyT1tDSDJdW0NIMl1bQ0gyXVtDSDJdbihbY0hdYzEzKVtjSF1uMw==

> <s_lp_Force_Field>
OPLS_2005

> <s_lp_Variant>
MCD00027-2

> <s_m_source_file>
MCD00027.smi

$$$$
MCD00028
                    3D
 Schrodinger Suite 2023-4.
 41 43  0  0  1  0            999 V2000
   -1.4285    3.3225    0.7256 O   0  0  0  0  0  0
   -1.2069    2.1245    0.8894 C   0  0  0  0  0  0
   -0.4226    1.4452    0.0295 N   0  0  0  0  0  0
   -0.0449    0.0289   -0.0036 C   0  0  2  0  0  0
    1.4823   -0.0990    0.0503 C   0  0  0  0  0  0
    1.9526   -0.9340    0.8531 O   0  0  0  0  0  0
    2.1513    0.6176   -0.7273 O   0  5  0  0  0  0
   -0.5736   -0.6297   -1.2956 C   0  0  0  0  0  0
   -2.0320   -0.9240   -1.2104 C   0  0  0  0  0  0
   -2.7132   -1.8707   -0.4899 C   0  0  0  0  0  0
   -4.0462   -1.6709   -0.7267 N   0  0  0  0  0  0
   -4.2085   -0.6665   -1.5955 C   0  0  0  0  0  0
   -2.9867   -0.2085   -1.8858 N   0  3  0  0  0  0
   -5.1621   -2.3761   -0.0978 C   0  0  0  0  0  0
   -5.1932   -2.0550    1.3784 C   0  0  0  0  0  0
   -5.9560   -1.0922    1.9139 C   0  0  0  0  0  0
   -5.8377   -0.6151    3.3432 C   0  0  0  0  0  0
   -5.2437    0.6770    3.3644 O   0  0  0  0  0  0
   -3.8719    0.7007    3.2605 C   0  0  0  0  0  0
   -3.0712    0.1760    4.2939 C   0  0  0  0  0  0
   -1.6727    0.2894    4.2291 C   0  0  0  0  0  0
   -1.0567    0.9233    3.1336 C   0  0  0  0  0  0
    0.6589    1.1407    3.1936 Cl  0  0  0  0  0  0
   -1.8439    1.4100    2.0555 C   0  0  0  0  0  0
   -3.2604    1.3093    2.1399 C   0  0  0  0  0  0
   -4.2820    1.9187    0.8784 Cl  0  0  0  0  0  0
   -0.0082    1.9982   -0.7071 H   0  0  0  0  0  0
   -0.4486   -0.5077    0.8555 H   0  0  0  0  0  0
   -0.3734   -0.0019   -2.1655 H   0  0  0  0  0  0
   -0.0612   -1.5760   -1.4762 H   0  0  0  0  0  0
   -2.3536   -2.6316    0.1878 H   0  0  0  0  0  0
   -5.1407   -0.2772   -1.9639 H   0  0  0  0  0  0
   -6.0926   -2.0736   -0.5811 H   0  0  0  0  0  0
   -5.0321   -3.4475   -0.2526 H   0  0  0  0  0  0
   -4.4655   -2.5627    1.9951 H   0  0  0  0  0  0
   -6.6335   -0.5354    1.2828 H   0  0  0  0  0  0
   -6.8379   -0.5488    3.7715 H   0  0  0  0  0  0
   -5.2845   -1.3361    3.9470 H   0  0  0  0  0  0
   -3.5287   -0.2805    5.1592 H   0  0  0  0  0  0
   -1.0694   -0.0823    5.0444 H   0  0  0  0  0  0
   -2.7965    0.5697   -2.5049 H   0  0  0  0  0  0
  1  2  2  0  0  0
  2  3  1  0  0  0
  2 24  1  0  0  0
  3  4  1  0  0  0
  3 27  1  0  0  0
  4  5  1  0  0  0
  4  8  1  0  0  0
  4 28  1  0  0  0
  5  6  2  0  0  0
  5  7  1  0  0  0
  8  9  1  0  0  0
  8 29  1  0  0  0
  8 30  1  0  0  0
  9 10  2  0  0  0
  9 13  1  0  0  0
 10 11  1  0  0  0
 10 31  1  0  0  0
 11 12  1  0  0  0
 11 14  1  0  0  0
 12 13  2  0  0  0
 12 32  1  0  0  0
 13 41  1  0  0  0
 14 15  1  0  0  0
 14 33  1  0  0  0
 14 34  1  0  0  0
 15 16  2  0  0  0
 15 35  1  0  0  0
 16 17  1  0  0  0
 16 36  1  0  0  0
 17 18  1  0  0  0
 17 37  1  0  0  0
 17 38  1  0  0  0
 18 19  1  0  0  0
 19 20  1  0  0  0
 19 25  2  0  0  0
 20 21  2  0  0  0
 20 39  1  0  0  0
 21 22  1  0  0  0
 21 40  1  0  0  0
 22 23  1  0  0  0
 22 24  2  0  0  0
 24 25  1  0  0  0
 25 26  1  0  0  0
M  CHG  2   7  -1  13   1
M  END
> <i_epik_Tot_Q>
0

> <i_epik_Tot_abs_Q>
2

> <i_f3d_flags>
0

> <i_lp_mmshare_version>
64135

> <i_m_source_file_index>
1

> <b_lp_Chiralities_Consistent>
1

> <r_epik_Charging_Adjusted_Penalty>
0.262469

> <r_epik_Ionization_Penalty>
0.262476

> <r_epik_Ionization_Penalty_Charging>
6.34842e-05

> <r_epik_Ionization_Penalty_Neutral>
0.262412

> <r_epik_State_Penalty>
0.262405

> <r_lp_Energy>
22.5161

> <r_lp_tautomer_probability>
1

> <s_epik_cmdline>
J2VwaWtfcHl0aG9uJywgJy1waCcsICc3LjAnLCAnLXRuJywgJzgnLCAnLW1hJywgJzIwMCcsICctaW1hZScsICc8aW5maWxlLm1hZT4nLCAnLW9tYWUnLCAnPG91dGZpbGUubWFlPic=

> <s_epik_input>
Tz1DKFtPSF0pW0NASF0oW0NIMl0xKVtOSF1DKD1PKWMoYzJDbCljKENsKVtjSF1bY0hdYzJPW0NIMl1cW0NIXT1bQ0hdXFtDSDJdbihbY0hdYzEzKVtjSF1uMw==

> <s_lp_Force_Field>
OPLS_2005

> <s_lp_Variant>
MCD00028-1

> <s_m_source_file>
MCD00028.smi

$$$$
MCD00028
                    3D
 Schrodinger Suite 2023-4.
 40 42  0  0  1  0            999 V2000
   -1.3178    3.3017    0.8639 O   0  0  0  0  0  0
   -1.0858    2.0978    0.9572 C   0  0  0  0  0  0
   -0.3723    1.4478    0.0166 N   0  0  0  0  0  0
    0.0175    0.0353   -0.0581 C   0  0  2  0  0  0
    1.5479   -0.0747   -0.0552 C   0  0  0  0  0  0
    2.0557   -0.9040    0.7310 O   0  0  0  0  0  0
    2.1850    0.6561   -0.8467 O   0  5  0  0  0  0
   -0.5446   -0.6111   -1.3434 C   0  0  0  0  0  0
   -2.0220   -0.8484   -1.2767 C   0  0  0  0  0  0
   -2.6969   -1.7840   -0.5270 C   0  0  0  0  0  0
   -4.0486   -1.5685   -0.7494 N   0  0  0  0  0  0
   -4.1135   -0.5547   -1.6238 C   0  0  0  0  0  0
   -2.9336   -0.0602   -1.9769 N   0  0  0  0  0  0
   -5.1467   -2.2521   -0.1010 C   0  0  0  0  0  0
   -5.5046   -1.5260    1.1740 C   0  0  0  0  0  0
   -5.1935   -1.9453    2.4101 C   0  0  0  0  0  0
   -5.4030   -1.0987    3.6488 C   0  0  0  0  0  0
   -4.9274    0.2305    3.4414 O   0  0  0  0  0  0
   -3.5619    0.3922    3.3453 C   0  0  0  0  0  0
   -2.6851   -0.1243    4.3231 C   0  0  0  0  0  0
   -1.3028    0.1067    4.2269 C   0  0  0  0  0  0
   -0.7740    0.8400    3.1489 C   0  0  0  0  0  0
    0.9258    1.1649    3.1494 Cl  0  0  0  0  0  0
   -1.6342    1.3254    2.1294 C   0  0  0  0  0  0
   -3.0354    1.1258    2.2569 C   0  0  0  0  0  0
   -4.1389    1.7593    1.0794 Cl  0  0  0  0  0  0
   -0.0257    2.0161   -0.7425 H   0  0  0  0  0  0
   -0.3545   -0.5271    0.7985 H   0  0  0  0  0  0
   -0.2971    0.0034   -2.2106 H   0  0  0  0  0  0
   -0.0505   -1.5687   -1.5152 H   0  0  0  0  0  0
   -2.3362   -2.5404    0.1544 H   0  0  0  0  0  0
   -5.0471   -0.1454   -1.9810 H   0  0  0  0  0  0
   -6.0068   -2.2804   -0.7707 H   0  0  0  0  0  0
   -4.8519   -3.2811    0.1094 H   0  0  0  0  0  0
   -5.9615   -0.5552    1.0473 H   0  0  0  0  0  0
   -4.7013   -2.8965    2.5506 H   0  0  0  0  0  0
   -6.4721   -1.0538    3.8571 H   0  0  0  0  0  0
   -4.9442   -1.5783    4.5127 H   0  0  0  0  0  0
   -3.0633   -0.6676    5.1754 H   0  0  0  0  0  0
   -0.6446   -0.2646    4.9988 H   0  0  0  0  0  0
  1  2  2  0  0  0
  2  3  1  0  0  0
  2 24  1  0  0  0
  3  4  1  0  0  0
  3 27  1  0  0  0
  4  5  1  0  0  0
  4  8  1  0  0  0
  4 28  1  0  0  0
  5  6  2  0  0  0
  5  7  1  0  0  0
  8  9  1  0  0  0
  8 29  1  0  0  0
  8 30  1  0  0  0
  9 10  2  0  0  0
  9 13  1  0  0  0
 10 11  1  0  0  0
 10 31  1  0  0  0
 11 12  1  0  0  0
 11 14  1  0  0  0
 12 13  2  0  0  0
 12 32  1  0  0  0
 14 15  1  0  0  0
 14 33  1  0  0  0
 14 34  1  0  0  0
 15 16  2  0  0  0
 15 35  1  0  0  0
 16 17  1  0  0  0
 16 36  1  0  0  0
 17 18  1  0  0  0
 17 37  1  0  0  0
 17 38  1  0  0  0
 18 19  1  0  0  0
 19 20  1  0  0  0
 19 25  2  0  0  0
 20 21  2  0  0  0
 20 39  1  0  0  0
 21 22  1  0  0  0
 21 40  1  0  0  0
 22 23  1  0  0  0
 22 24  2  0  0  0
 24 25  1  0  0  0
 25 26  1  0  0  0
M  CHG  1   7  -1
M  END
> <i_epik_Tot_Q>
-1

> <i_epik_Tot_abs_Q>
1

> <i_f3d_flags>
0

> <i_lp_mmshare_version>
64135

> <i_m_source_file_index>
1

> <b_lp_Chiralities_Consistent>
1

> <r_epik_Charging_Adjusted_Penalty>
1.21791

> <r_epik_Ionization_Penalty>
0.60901

> <r_epik_Ionization_Penalty_Charging>
0.609005

> <r_epik_Ionization_Penalty_Neutral>
5.0606e-06

> <r_epik_State_Penalty>
0.60891

> <r_lp_Energy>
23.6548

> <r_lp_tautomer_probability>
1

> <s_epik_cmdline>
J2VwaWtfcHl0aG9uJywgJy1waCcsICc3LjAnLCAnLXRuJywgJzgnLCAnLW1hJywgJzIwMCcsICctaW1hZScsICc8aW5maWxlLm1hZT4nLCAnLW9tYWUnLCAnPG91dGZpbGUubWFlPic=

> <s_epik_input>
Tz1DKFtPSF0pW0NASF0oW0NIMl0xKVtOSF1DKD1PKWMoYzJDbCljKENsKVtjSF1bY0hdYzJPW0NIMl1cW0NIXT1bQ0hdXFtDSDJdbihbY0hdYzEzKVtjSF1uMw==

> <s_lp_Force_Field>
OPLS_2005

> <s_lp_Variant>
MCD00028-2

> <s_m_source_file>
MCD00028.smi

$$$$
MCD00029
                    3D
 Schrodinger Suite 2023-4.
 44 46  0  0  1  0            999 V2000
   -1.6985    3.2250    0.6082 O   0  0  0  0  0  0
   -1.3398    2.0705    0.8287 C   0  0  0  0  0  0
   -0.5292    1.4109   -0.0194 N   0  0  0  0  0  0
   -0.1543   -0.0066   -0.0199 C   0  0  2  0  0  0
    1.3651   -0.1415    0.1284 C   0  0  0  0  0  0
    1.7814   -0.9173    1.0160 O   0  0  0  0  0  0
    2.0830    0.5165   -0.6573 O   0  5  0  0  0  0
   -0.6125   -0.6625   -1.3395 C   0  0  0  0  0  0
   -2.0972   -0.8099   -1.4137 C   0  0  0  0  0  0
   -2.9179   -1.8658   -1.1082 C   0  0  0  0  0  0
   -4.2061   -1.4525   -1.3298 N   0  0  0  0  0  0
   -4.2049   -0.1951   -1.7868 C   0  0  0  0  0  0
   -2.9287    0.1974   -1.8322 N   0  3  0  0  0  0
   -5.4372   -2.2304   -1.1434 C   0  0  0  0  0  0
   -5.5433   -2.8413    0.2684 C   0  0  0  0  0  0
   -5.5591   -1.8365    1.4094 C   0  0  0  0  0  0
   -5.9945   -0.5651    1.3455 C   0  0  0  0  0  0
   -5.9933    0.4100    2.5085 C   0  0  0  0  0  0
   -5.0397    0.0706    3.5111 O   0  0  0  0  0  0
   -3.7129    0.4033    3.3214 C   0  0  0  0  0  0
   -2.8286    0.0971    4.3738 C   0  0  0  0  0  0
   -1.4660    0.4348    4.2905 C   0  0  0  0  0  0
   -0.9610    1.0825    3.1480 C   0  0  0  0  0  0
    0.7043    1.5520    3.1403 Cl  0  0  0  0  0  0
   -1.8269    1.3654    2.0621 C   0  0  0  0  0  0
   -3.1958    1.0313    2.1595 C   0  0  0  0  0  0
   -0.1708    1.9438   -0.7986 H   0  0  0  0  0  0
   -0.6180   -0.5443    0.8082 H   0  0  0  0  0  0
   -0.2646   -0.0894   -2.2006 H   0  0  0  0  0  0
   -0.1735   -1.6569   -1.4354 H   0  0  0  0  0  0
   -2.6807   -2.8549   -0.7444 H   0  0  0  0  0  0
   -5.0635    0.3932   -2.0571 H   0  0  0  0  0  0
   -6.2976   -1.5977   -1.3652 H   0  0  0  0  0  0
   -5.4323   -3.0234   -1.8919 H   0  0  0  0  0  0
   -6.4435   -3.4523    0.3420 H   0  0  0  0  0  0
   -4.7055   -3.5194    0.4331 H   0  0  0  0  0  0
   -5.1948   -2.2150    2.3534 H   0  0  0  0  0  0
   -6.4030   -0.1796    0.4239 H   0  0  0  0  0  0
   -5.8550    1.4319    2.1541 H   0  0  0  0  0  0
   -6.9843    0.3882    2.9619 H   0  0  0  0  0  0
   -3.2025   -0.3860    5.2647 H   0  0  0  0  0  0
   -0.8085    0.2129    5.1182 H   0  0  0  0  0  0
   -3.8364    1.2711    1.3245 H   0  0  0  0  0  0
   -2.6196    1.1145   -2.1297 H   0  0  0  0  0  0
  1  2  2  0  0  0
  2  3  1  0  0  0
  2 25  1  0  0  0
  3  4  1  0  0  0
  3 27  1  0  0  0
  4  5  1  0  0  0
  4  8  1  0  0  0
  4 28  1  0  0  0
  5  6  2  0  0  0
  5  7  1  0  0  0
  8  9  1  0  0  0
  8 29  1  0  0  0
  8 30  1  0  0  0
  9 10  2  0  0  0
  9 13  1  0  0  0
 10 11  1  0  0  0
 10 31  1  0  0  0
 11 12  1  0  0  0
 11 14  1  0  0  0
 12 13  2  0  0  0
 12 32  1  0  0  0
 13 44  1  0  0  0
 14 15  1  0  0  0
 14 33  1  0  0  0
 14 34  1  0  0  0
 15 16  1  0  0  0
 15 35  1  0  0  0
 15 36  1  0  0  0
 16 17  2  0  0  0
 16 37  1  0  0  0
 17 18  1  0  0  0
 17 38  1  0  0  0
 18 19  1  0  0  0
 18 39  1  0  0  0
 18 40  1  0  0  0
 19 20  1  0  0  0
 20 21  1  0  0  0
 20 26  2  0  0  0
 21 22  2  0  0  0
 21 41  1  0  0  0
 22 23  1  0  0  0
 22 42  1  0  0  0
 23 24  1  0  0  0
 23 25  2  0  0  0
 25 26  1  0  0  0
 26 43  1  0  0  0
M  CHG  2   7  -1  13   1
M  END
> <i_epik_Tot_Q>
0

> <i_epik_Tot_abs_Q>
2

> <i_f3d_flags>
0

> <i_lp_mmshare_version>
64135

> <i_m_source_file_index>
1

> <b_lp_Chiralities_Consistent>
1

> <r_epik_Charging_Adjusted_Penalty>
0.147307

> <r_epik_Ionization_Penalty>
0.147308

> <r_epik_Ionization_Penalty_Charging>
6.34842e-05

> <r_epik_Ionization_Penalty_Neutral>
0.147244

> <r_epik_State_Penalty>
0.147243

> <r_lp_Energy>
20.538

> <r_lp_tautomer_probability>
1

> <s_epik_cmdline>
J2VwaWtfcHl0aG9uJywgJy1waCcsICc3LjAnLCAnLXRuJywgJzgnLCAnLW1hJywgJzIwMCcsICctaW1hZScsICc8aW5maWxlLm1hZT4nLCAnLW9tYWUnLCAnPG91dGZpbGUubWFlPic=

> <s_epik_input>
Tz1DKFtPSF0pW0NASF0oW0NIMl0xKVtOSF1DKD1PKWMoW2NIXTIpYyhDbClbY0hdW2NIXWMyT1tDSDJdXFtDSF09W0NIXVxbQ0gyXVtDSDJdbihbY0hdYzEzKVtjSF1uMw==

> <s_lp_Force_Field>
OPLS_2005

> <s_lp_Variant>
MCD00029-1

> <s_m_source_file>
MCD00029.smi

$$$$
MCD00029
                    3D
 Schrodinger Suite 2023-4.
 43 45  0  0  1  0            999 V2000
   -0.8759    3.4218    0.9752 O   0  0  0  0  0  0
   -0.7712    2.2026    1.0900 C   0  0  0  0  0  0
   -0.4542    1.4096    0.0520 N   0  0  0  0  0  0
   -0.2583   -0.0430    0.0556 C   0  0  2  0  0  0
    1.2320   -0.3597    0.2452 C   0  0  0  0  0  0
    1.5324   -1.1047    1.2034 O   0  0  0  0  0  0
    2.0447    0.1456   -0.5613 O   0  5  0  0  0  0
   -0.7176   -0.6099   -1.3045 C   0  0  0  0  0  0
   -2.2040   -0.5088   -1.4688 C   0  0  0  0  0  0
   -3.1698   -1.4199   -1.1068 C   0  0  0  0  0  0
   -4.3952   -0.8220   -1.3701 N   0  0  0  0  0  0
   -4.1050    0.3726   -1.9028 C   0  0  0  0  0  0
   -2.8085    0.6357   -1.9867 N   0  0  0  0  0  0
   -5.7153   -1.3792   -1.1445 C   0  0  0  0  0  0
   -5.9209   -1.8655    0.3004 C   0  0  0  0  0  0
   -5.7332   -0.7704    1.3334 C   0  0  0  0  0  0
   -5.0597   -0.9268    2.4843 C   0  0  0  0  0  0
   -4.9298    0.1419    3.5504 C   0  0  0  0  0  0
   -3.7838   -0.0548    4.3702 O   0  0  0  0  0  0
   -2.5594    0.4389    3.9734 C   0  0  0  0  0  0
   -1.5082    0.3245    4.9043 C   0  0  0  0  0  0
   -0.2263    0.8225    4.6105 C   0  0  0  0  0  0
    0.0271    1.4435    3.3742 C   0  0  0  0  0  0
    1.6162    2.0558    3.0644 Cl  0  0  0  0  0  0
   -1.0125    1.5514    2.4193 C   0  0  0  0  0  0
   -2.2988    1.0478    2.7206 C   0  0  0  0  0  0
   -0.2961    1.8656   -0.8347 H   0  0  0  0  0  0
   -0.8312   -0.5275    0.8474 H   0  0  0  0  0  0
   -0.2141   -0.0948   -2.1246 H   0  0  0  0  0  0
   -0.4214   -1.6572   -1.3855 H   0  0  0  0  0  0
   -3.0871   -2.4030   -0.6677 H   0  0  0  0  0  0
   -4.8622    1.0722   -2.2249 H   0  0  0  0  0  0
   -6.4632   -0.6251   -1.3946 H   0  0  0  0  0  0
   -5.8576   -2.2061   -1.8408 H   0  0  0  0  0  0
   -6.9358   -2.2498    0.4031 H   0  0  0  0  0  0
   -5.2530   -2.6992    0.5213 H   0  0  0  0  0  0
   -6.2126    0.1747    1.1228 H   0  0  0  0  0  0
   -4.6167   -1.8846    2.7154 H   0  0  0  0  0  0
   -4.9824    1.1466    3.1289 H   0  0  0  0  0  0
   -5.7973    0.0477    4.2036 H   0  0  0  0  0  0
   -1.6898   -0.1427    5.8611 H   0  0  0  0  0  0
    0.5643    0.7313    5.3407 H   0  0  0  0  0  0
   -3.0748    1.1384    1.9750 H   0  0  0  0  0  0
  1  2  2  0  0  0
  2  3  1  0  0  0
  2 25  1  0  0  0
  3  4  1  0  0  0
  3 27  1  0  0  0
  4  5  1  0  0  0
  4  8  1  0  0  0
  4 28  1  0  0  0
  5  6  2  0  0  0
  5  7  1  0  0  0
  8  9  1  0  0  0
  8 29  1  0  0  0
  8 30  1  0  0  0
  9 10  2  0  0  0
  9 13  1  0  0  0
 10 11  1  0  0  0
 10 31  1  0  0  0
 11 12  1  0  0  0
 11 14  1  0  0  0
 12 13  2  0  0  0
 12 32  1  0  0  0
 14 15  1  0  0  0
 14 33  1  0  0  0
 14 34  1  0  0  0
 15 16  1  0  0  0
 15 35  1  0  0  0
 15 36  1  0  0  0
 16 17  2  0  0  0
 16 37  1  0  0  0
 17 18  1  0  0  0
 17 38  1  0  0  0
 18 19  1  0  0  0
 18 39  1  0  0  0
 18 40  1  0  0  0
 19 20  1  0  0  0
 20 21  1  0  0  0
 20 26  2  0  0  0
 21 22  2  0  0  0
 21 41  1  0  0  0
 22 23  1  0  0  0
 22 42  1  0  0  0
 23 24  1  0  0  0
 23 25  2  0  0  0
 25 26  1  0  0  0
 26 43  1  0  0  0
M  CHG  1   7  -1
M  END
> <i_epik_Tot_Q>
-1

> <i_epik_Tot_abs_Q>
1

> <i_f3d_flags>
0

> <i_lp_mmshare_version>
64135

> <i_m_source_file_index>
1

> <b_lp_Chiralities_Consistent>
1

> <r_epik_Charging_Adjusted_Penalty>
1.79406

> <r_epik_Ionization_Penalty>
0.897077

> <r_epik_Ionization_Penalty_Charging>
0.897076

> <r_epik_Ionization_Penalty_Neutral>
9.84227e-07

> <r_epik_State_Penalty>
0.896981

> <r_lp_Energy>
19.3444

> <r_lp_tautomer_probability>
1

> <s_epik_cmdline>
J2VwaWtfcHl0aG9uJywgJy1waCcsICc3LjAnLCAnLXRuJywgJzgnLCAnLW1hJywgJzIwMCcsICctaW1hZScsICc8aW5maWxlLm1hZT4nLCAnLW9tYWUnLCAnPG91dGZpbGUubWFlPic=

> <s_epik_input>
Tz1DKFtPSF0pW0NASF0oW0NIMl0xKVtOSF1DKD1PKWMoW2NIXTIpYyhDbClbY0hdW2NIXWMyT1tDSDJdXFtDSF09W0NIXVxbQ0gyXVtDSDJdbihbY0hdYzEzKVtjSF1uMw==

> <s_lp_Force_Field>
OPLS_2005

> <s_lp_Variant>
MCD00029-2

> <s_m_source_file>
MCD00029.smi

$$$$
MCD00030
                    3D
 Schrodinger Suite 2023-4.
 46 48  0  0  1  0            999 V2000
   -1.7501    3.1897    0.5994 O   0  0  0  0  0  0
   -1.3525    2.0545    0.8512 C   0  0  0  0  0  0
   -0.5851    1.3629   -0.0109 N   0  0  0  0  0  0
   -0.2263   -0.0589    0.0349 C   0  0  2  0  0  0
    1.2836   -0.2072    0.2523 C   0  0  0  0  0  0
    1.6503   -0.9301    1.2038 O   0  0  0  0  0  0
    2.0440    0.3934   -0.5394 O   0  5  0  0  0  0
   -0.6244   -0.7263   -1.2985 C   0  0  0  0  0  0
   -2.1007   -0.6744   -1.5212 C   0  0  0  0  0  0
   -3.1150   -1.5125   -1.1309 C   0  0  0  0  0  0
   -4.2874   -0.9447   -1.5565 N   0  0  0  0  0  0
   -4.0318    0.1954   -2.2067 C   0  0  0  0  0  0
   -2.7072    0.3591   -2.1884 N   0  3  0  0  0  0
   -5.6493   -1.4434   -1.3602 C   0  0  0  0  0  0
   -6.2766   -0.9365   -0.0514 C   0  0  0  0  0  0
   -5.6829   -1.5816    1.2135 C   0  0  0  0  0  0
   -6.3799   -1.1112    2.4997 C   0  0  0  0  0  0
   -5.7994    0.1792    3.0988 C   0  0  0  0  0  0
   -4.6619   -0.1440    3.8929 O   0  0  0  0  0  0
   -3.4075    0.3359    3.5828 C   0  0  0  0  0  0
   -2.4361    0.1976    4.5933 C   0  0  0  0  0  0
   -1.1274    0.6751    4.4093 C   0  0  0  0  0  0
   -0.7623    1.2935    3.2008 C   0  0  0  0  0  0
    0.8435    1.9223    3.0513 Cl  0  0  0  0  0  0
   -1.7138    1.4086    2.1569 C   0  0  0  0  0  0
   -3.0318    0.9343    2.3531 C   0  0  0  0  0  0
   -0.2839    1.8550   -0.8392 H   0  0  0  0  0  0
   -0.7437   -0.5779    0.8430 H   0  0  0  0  0  0
   -0.1208   -0.2479   -2.1403 H   0  0  0  0  0  0
   -0.3136   -1.7722   -1.3037 H   0  0  0  0  0  0
   -3.0888   -2.4388   -0.5755 H   0  0  0  0  0  0
   -4.7520    0.8587   -2.6515 H   0  0  0  0  0  0
   -6.2494   -1.1226   -2.2130 H   0  0  0  0  0  0
   -5.6217   -2.5336   -1.3859 H   0  0  0  0  0  0
   -6.1863    0.1490    0.0044 H   0  0  0  0  0  0
   -7.3460   -1.1478   -0.0829 H   0  0  0  0  0  0
   -5.7995   -2.6628    1.1319 H   0  0  0  0  0  0
   -4.6106   -1.3994    1.2827 H   0  0  0  0  0  0
   -7.4440   -0.9744    2.3036 H   0  0  0  0  0  0
   -6.3236   -1.8989    3.2522 H   0  0  0  0  0  0
   -5.6524    0.9523    2.3477 H   0  0  0  0  0  0
   -6.5336    0.5943    3.7896 H   0  0  0  0  0  0
   -2.7034   -0.2660    5.5318 H   0  0  0  0  0  0
   -0.4045    0.5778    5.2060 H   0  0  0  0  0  0
   -3.7325    1.0298    1.5383 H   0  0  0  0  0  0
   -2.2207    1.1483   -2.5949 H   0  0  0  0  0  0
  1  2  2  0  0  0
  2  3  1  0  0  0
  2 25  1  0  0  0
  3  4  1  0  0  0
  3 27  1  0  0  0
  4  5  1  0  0  0
  4  8  1  0  0  0
  4 28  1  0  0  0
  5  6  2  0  0  0
  5  7  1  0  0  0
  8  9  1  0  0  0
  8 29  1  0  0  0
  8 30  1  0  0  0
  9 10  2  0  0  0
  9 13  1  0  0  0
 10 11  1  0  0  0
 10 31  1  0  0  0
 11 12  1  0  0  0
 11 14  1  0  0  0
 12 13  2  0  0  0
 12 32  1  0  0  0
 13 46  1  0  0  0
 14 15  1  0  0  0
 14 33  1  0  0  0
 14 34  1  0  0  0
 15 16  1  0  0  0
 15 35  1  0  0  0
 15 36  1  0  0  0
 16 17  1  0  0  0
 16 37  1  0  0  0
 16 38  1  0  0  0
 17 18  1  0  0  0
 17 39  1  0  0  0
 17 40  1  0  0  0
 18 19  1  0  0  0
 18 41  1  0  0  0
 18 42  1  0  0  0
 19 20  1  0  0  0
 20 21  1  0  0  0
 20 26  2  0  0  0
 21 22  2  0  0  0
 21 43  1  0  0  0
 22 23  1  0  0  0
 22 44  1  0  0  0
 23 24  1  0  0  0
 23 25  2  0  0  0
 25 26  1  0  0  0
 26 45  1  0  0  0
M  CHG  2   7  -1  13   1
M  END
> <i_epik_Tot_Q>
0

> <i_epik_Tot_abs_Q>
2

> <i_f3d_flags>
0

> <i_lp_mmshare_version>
64135

> <i_m_source_file_index>
1

> <b_lp_Chiralities_Consistent>
1

> <r_epik_Charging_Adjusted_Penalty>
0.123072

> <r_epik_Ionization_Penalty>
0.123073

> <r_epik_Ionization_Penalty_Charging>
6.34842e-05

> <r_epik_Ionization_Penalty_Neutral>
0.12301

> <r_epik_State_Penalty>
0.123008

> <r_lp_Energy>
24.1381

> <r_lp_tautomer_probability>
1

> <s_epik_cmdline>
J2VwaWtfcHl0aG9uJywgJy1waCcsICc3LjAnLCAnLXRuJywgJzgnLCAnLW1hJywgJzIwMCcsICctaW1hZScsICc8aW5maWxlLm1hZT4nLCAnLW9tYWUnLCAnPG91dGZpbGUubWFlPic=

> <s_epik_input>
Tz1DKFtPSF0pW0NASF0oW0NIMl0xKVtOSF1DKD1PKWMoW2NIXTIpYyhDbClbY0hdW2NIXWMyT1tDSDJdW0NIMl1bQ0gyXVtDSDJdW0NIMl1uKFtjSF1jMTMpW2NIXW4z

> <s_lp_Force_Field>
OPLS_2005

> <s_lp_Variant>
MCD00030-1

> <s_m_source_file>
MCD00030.smi

$$$$
MCD00030
                    3D
 Schrodinger Suite 2023-4.
 45 47  0  0  1  0            999 V2000
   -1.0713    3.3304    0.9621 O   0  0  0  0  0  0
   -0.9877    2.1046    1.0050 C   0  0  0  0  0  0
   -0.4857    1.3838   -0.0144 N   0  0  0  0  0  0
   -0.0938   -0.0302   -0.0043 C   0  0  2  0  0  0
    1.4352   -0.1042    0.1055 C   0  0  0  0  0  0
    1.9027   -0.6583    1.1243 O   0  0  0  0  0  0
    2.1116    0.3981   -0.8199 O   0  5  0  0  0  0
   -0.5484   -0.7045   -1.3173 C   0  0  0  0  0  0
   -2.0313   -0.9302   -1.3568 C   0  0  0  0  0  0
   -2.7390   -2.0619   -1.0149 C   0  0  0  0  0  0
   -4.0829   -1.7560   -1.1864 N   0  0  0  0  0  0
   -4.1087   -0.4874   -1.6179 C   0  0  0  0  0  0
   -2.9149    0.0750   -1.7460 N   0  0  0  0  0  0
   -5.2274   -2.6172   -0.9532 C   0  0  0  0  0  0
   -5.7353   -2.5330    0.4961 C   0  0  0  0  0  0
   -4.9442   -3.4076    1.4862 C   0  0  0  0  0  0
   -5.3219   -3.1406    2.9560 C   0  0  0  0  0  0
   -4.3512   -2.1857    3.6661 C   0  0  0  0  0  0
   -4.2524   -0.9780    2.9247 O   0  0  0  0  0  0
   -3.1390   -0.2029    3.1478 C   0  0  0  0  0  0
   -2.4662   -0.1415    4.3904 C   0  0  0  0  0  0
   -1.3257    0.6708    4.5383 C   0  0  0  0  0  0
   -0.8333    1.4186    3.4507 C   0  0  0  0  0  0
    0.5938    2.3709    3.6766 Cl  0  0  0  0  0  0
   -1.4964    1.3555    2.2014 C   0  0  0  0  0  0
   -2.6574    0.5637    2.0707 C   0  0  0  0  0  0
   -0.1988    1.9011   -0.8324 H   0  0  0  0  0  0
   -0.5191   -0.5828    0.8336 H   0  0  0  0  0  0
   -0.2362   -0.1110   -2.1782 H   0  0  0  0  0  0
   -0.0452   -1.6667   -1.4267 H   0  0  0  0  0  0
   -2.4056   -3.0273   -0.6638 H   0  0  0  0  0  0
   -5.0257    0.0377   -1.8421 H   0  0  0  0  0  0
   -6.0204   -2.3099   -1.6362 H   0  0  0  0  0  0
   -4.9665   -3.6420   -1.2199 H   0  0  0  0  0  0
   -5.7341   -1.4913    0.8194 H   0  0  0  0  0  0
   -6.7789   -2.8489    0.5209 H   0  0  0  0  0  0
   -5.1418   -4.4539    1.2505 H   0  0  0  0  0  0
   -3.8711   -3.2708    1.3507 H   0  0  0  0  0  0
   -6.3413   -2.7582    3.0213 H   0  0  0  0  0  0
   -5.3236   -4.0857    3.4998 H   0  0  0  0  0  0
   -4.7043   -1.9772    4.6768 H   0  0  0  0  0  0
   -3.3746   -2.6670    3.7481 H   0  0  0  0  0  0
   -2.8165   -0.7062    5.2413 H   0  0  0  0  0  0
   -0.8189    0.7119    5.4913 H   0  0  0  0  0  0
   -3.1703    0.5155    1.1212 H   0  0  0  0  0  0
  1  2  2  0  0  0
  2  3  1  0  0  0
  2 25  1  0  0  0
  3  4  1  0  0  0
  3 27  1  0  0  0
  4  5  1  0  0  0
  4  8  1  0  0  0
  4 28  1  0  0  0
  5  6  2  0  0  0
  5  7  1  0  0  0
  8  9  1  0  0  0
  8 29  1  0  0  0
  8 30  1  0  0  0
  9 10  2  0  0  0
  9 13  1  0  0  0
 10 11  1  0  0  0
 10 31  1  0  0  0
 11 12  1  0  0  0
 11 14  1  0  0  0
 12 13  2  0  0  0
 12 32  1  0  0  0
 14 15  1  0  0  0
 14 33  1  0  0  0
 14 34  1  0  0  0
 15 16  1  0  0  0
 15 35  1  0  0  0
 15 36  1  0  0  0
 16 17  1  0  0  0
 16 37  1  0  0  0
 16 38  1  0  0  0
 17 18  1  0  0  0
 17 39  1  0  0  0
 17 40  1  0  0  0
 18 19  1  0  0  0
 18 41  1  0  0  0
 18 42  1  0  0  0
 19 20  1  0  0  0
 20 21  1  0  0  0
 20 26  2  0  0  0
 21 22  2  0  0  0
 21 43  1  0  0  0
 22 23  1  0  0  0
 22 44  1  0  0  0
 23 24  1  0  0  0
 23 25  2  0  0  0
 25 26  1  0  0  0
 26 45  1  0  0  0
M  CHG  1   7  -1
M  END
> <i_epik_Tot_Q>
-1

> <i_epik_Tot_abs_Q>
1

> <i_f3d_flags>
0

> <i_lp_mmshare_version>
64135

> <i_m_source_file_index>
1

> <b_lp_Chiralities_Consistent>
1

> <r_epik_Charging_Adjusted_Penalty>
1.98384

> <r_epik_Ionization_Penalty>
0.991969

> <r_epik_Ionization_Penalty_Charging>
0.991968

> <r_epik_Ionization_Penalty_Neutral>
1.08849e-06

> <r_epik_State_Penalty>
0.991873

> <r_lp_Energy>
23.5566

> <r_lp_tautomer_probability>
1

> <s_epik_cmdline>
J2VwaWtfcHl0aG9uJywgJy1waCcsICc3LjAnLCAnLXRuJywgJzgnLCAnLW1hJywgJzIwMCcsICctaW1hZScsICc8aW5maWxlLm1hZT4nLCAnLW9tYWUnLCAnPG91dGZpbGUubWFlPic=

> <s_epik_input>
Tz1DKFtPSF0pW0NASF0oW0NIMl0xKVtOSF1DKD1PKWMoW2NIXTIpYyhDbClbY0hdW2NIXWMyT1tDSDJdW0NIMl1bQ0gyXVtDSDJdW0NIMl1uKFtjSF1jMTMpW2NIXW4z

> <s_lp_Force_Field>
OPLS_2005

> <s_lp_Variant>
MCD00030-2

> <s_m_source_file>
MCD00030.smi

$$$$
MCD00031
                    3D
 Schrodinger Suite 2023-4.
 41 44  0  0  1  0            999 V2000
    0.1352    0.4151   -0.5335 C   0  0  0  0  0  0
    1.4376    0.0213   -0.0042 N   0  0  0  0  0  0
    1.8784   -1.3742   -0.0667 C   0  0  0  0  0  0
    0.7602   -2.4078   -0.1074 C   0  0  0  0  0  0
    0.4013   -2.9772   -1.3477 C   0  0  0  0  0  0
   -0.6548   -3.9028   -1.4282 C   0  0  0  0  0  0
   -1.3559   -4.2678   -0.2654 C   0  0  0  0  0  0
   -2.3693   -5.1627   -0.3389 F   0  0  0  0  0  0
   -1.0008   -3.7078    0.9760 C   0  0  0  0  0  0
    0.0560   -2.7706    1.0677 C   0  0  0  0  0  0
    0.4357   -2.2273    2.2742 O   0  0  0  0  0  0
   -0.6129   -1.7079    3.0855 C   0  0  0  0  0  0
   -0.0193   -1.1271    4.3806 C   0  0  0  0  0  0
   -0.7730    0.0478    4.8203 N   0  0  0  0  0  0
   -0.3790    1.3341    4.9187 C   0  0  0  0  0  0
   -1.1261    2.1822    5.4003 O   0  0  0  0  0  0
    1.0055    1.6989    4.4930 C   0  0  0  0  0  0
    1.9783    2.3722    5.2597 C   0  0  0  0  0  0
    3.0981    2.5110    4.5630 N   0  0  0  0  0  0
    2.8115    1.9307    3.3294 N   0  0  0  0  0  0
    3.6895    1.8036    2.2942 C   0  0  0  0  0  0
    3.2426    1.1647    1.1540 C   0  0  0  0  0  0
    4.0806    0.9747    0.1064 F   0  0  0  0  0  0
    1.8891    0.7135    1.1038 C   0  0  0  0  0  0
    1.0308    0.8745    2.1105 N   0  0  0  0  0  0
    1.5197    1.4556    3.2218 C   0  0  0  0  0  0
    0.0502    1.5013   -0.5807 H   0  0  0  0  0  0
   -0.6742    0.0336    0.0899 H   0  0  0  0  0  0
    0.0032    0.0255   -1.5431 H   0  0  0  0  0  0
    2.4965   -1.4868   -0.9579 H   0  0  0  0  0  0
    2.5307   -1.6108    0.7758 H   0  0  0  0  0  0
    0.9305   -2.6964   -2.2466 H   0  0  0  0  0  0
   -0.9268   -4.3317   -2.3813 H   0  0  0  0  0  0
   -1.5410   -4.0227    1.8554 H   0  0  0  0  0  0
   -1.1301   -0.9330    2.5165 H   0  0  0  0  0  0
   -1.3542   -2.4627    3.3458 H   0  0  0  0  0  0
   -0.0647   -1.8798    5.1678 H   0  0  0  0  0  0
    1.0415   -0.9141    4.2593 H   0  0  0  0  0  0
   -1.7163   -0.1433    5.1259 H   0  0  0  0  0  0
    1.9099    2.7322    6.2759 H   0  0  0  0  0  0
    4.6967    2.1850    2.4261 H   0  0  0  0  0  0
  1  2  1  0  0  0
  1 27  1  0  0  0
  1 28  1  0  0  0
  1 29  1  0  0  0
  2  3  1  0  0  0
  2 24  1  0  0  0
  3  4  1  0  0  0
  3 30  1  0  0  0
  3 31  1  0  0  0
  4  5  2  0  0  0
  4 10  1  0  0  0
  5  6  1  0  0  0
  5 32  1  0  0  0
  6  7  2  0  0  0
  6 33  1  0  0  0
  7  8  1  0  0  0
  7  9  1  0  0  0
  9 10  2  0  0  0
  9 34  1  0  0  0
 10 11  1  0  0  0
 11 12  1  0  0  0
 12 13  1  0  0  0
 12 35  1  0  0  0
 12 36  1  0  0  0
 13 14  1  0  0  0
 13 37  1  0  0  0
 13 38  1  0  0  0
 14 15  1  0  0  0
 14 39  1  0  0  0
 15 16  2  0  0  0
 15 17  1  0  0  0
 17 18  1  0  0  0
 17 26  2  0  0  0
 18 19  2  0  0  0
 18 40  1  0  0  0
 19 20  1  0  0  0
 20 21  1  0  0  0
 20 26  1  0  0  0
 21 22  2  0  0  0
 21 41  1  0  0  0
 22 23  1  0  0  0
 22 24  1  0  0  0
 24 25  2  0  0  0
 25 26  1  0  0  0
M  END
> <i_epik_Tot_Q>
0

> <i_epik_Tot_abs_Q>
0

> <i_f3d_flags>
0

> <i_lp_mmshare_version>
64135

> <i_m_source_file_index>
1

> <b_lp_Chiralities_Consistent>
1

> <r_epik_Charging_Adjusted_Penalty>
0

> <r_epik_Ionization_Penalty>
1.35129e-05

> <r_epik_Ionization_Penalty_Charging>
0

> <r_epik_Ionization_Penalty_Neutral>
1.35129e-05

> <r_epik_State_Penalty>
-0

> <r_lp_Energy>
53.649

> <r_lp_tautomer_probability>
1

> <s_epik_cmdline>
J2VwaWtfcHl0aG9uJywgJy1waCcsICc3LjAnLCAnLXRuJywgJzgnLCAnLW1hJywgJzIwMCcsICctaW1hZScsICc8aW5maWxlLm1hZT4nLCAnLW9tYWUnLCAnPG91dGZpbGUubWFlPic=

> <s_epik_input>
W0NIM11OKFtDSDJdMSljKG4yKWMoRilbY0hdbihuW2NIXTMpYzJjM0MoPU8pW05IXVtDSDJdW0NIMl1PYyhjMTQpW2NIXWMoRilbY0hdW2NIXTQ=

> <s_lp_Force_Field>
OPLS_2005

> <s_lp_Variant>
MCD00031-1

> <s_m_source_file>
MCD00031.smi

$$$$
MCD00032
                    3D
 Schrodinger Suite 2023-4.
 44 47  0  0  1  0            999 V2000
   -0.0088    0.0345   -0.1361 C   0  0  0  0  0  0
    1.5223    0.0406   -0.0341 C   0  0  1  0  0  0
    2.0233    0.6880    1.2816 C   0  0  0  0  0  0
    1.6617    2.1057    1.4182 N   0  0  0  0  0  0
    2.4464    3.1829    1.2103 C   0  0  0  0  0  0
    2.0931    4.3256    1.4896 O   0  0  0  0  0  0
    3.7859    2.9341    0.5949 C   0  0  0  0  0  0
    4.9962    2.7331    1.2637 C   0  0  0  0  0  0
    5.9693    2.2610    0.5033 N   0  0  0  0  0  0
    5.3376    2.1401   -0.7213 N   0  0  0  0  0  0
    5.8785    1.4932   -1.8066 C   0  0  0  0  0  0
    5.0021    1.2995   -2.8887 C   0  0  0  0  0  0
    3.6841    1.9299   -2.8842 C   0  0  0  0  0  0
    3.2315    2.5566   -1.8013 N   0  0  0  0  0  0
    4.0288    2.5928   -0.7155 C   0  0  0  0  0  0
    5.2708    0.3591   -3.9041 N   0  0  0  0  0  0
    5.4988   -1.0231   -3.4457 C   0  0  2  0  0  0
    4.9424   -2.0135   -4.4804 C   0  0  0  0  0  0
    5.0904   -1.4320   -2.0158 C   0  0  0  0  0  0
    6.0128   -1.9495   -1.0920 C   0  0  0  0  0  0
    5.4784   -2.2574    0.1866 C   0  0  0  0  0  0
    6.3151   -2.7627    1.1235 F   0  0  0  0  0  0
    4.1155   -2.0601    0.5402 C   0  0  0  0  0  0
    3.2705   -1.5213   -0.4508 C   0  0  0  0  0  0
    3.7303   -1.2260   -1.7420 C   0  0  0  0  0  0
    1.9538   -1.3187   -0.1069 O   0  0  0  0  0  0
   -0.4123    1.0471   -0.1311 H   0  0  0  0  0  0
   -0.4582   -0.5098    0.6949 H   0  0  0  0  0  0
   -0.3336   -0.4431   -1.0608 H   0  0  0  0  0  0
    1.9020    0.5859   -0.8922 H   0  0  0  0  0  0
    1.5839    0.1581    2.1271 H   0  0  0  0  0  0
    3.0992    0.5519    1.3892 H   0  0  0  0  0  0
    0.7422    2.2865    1.7946 H   0  0  0  0  0  0
    5.1283    2.8665    2.3274 H   0  0  0  0  0  0
    6.8659    1.0487   -1.7328 H   0  0  0  0  0  0
    3.0069    1.7743   -3.7179 H   0  0  0  0  0  0
    4.6405    0.4129   -4.6917 H   0  0  0  0  0  0
    6.5835   -1.1338   -3.4749 H   0  0  0  0  0  0
    5.2293   -3.0367   -4.2358 H   0  0  0  0  0  0
    5.3242   -1.7970   -5.4788 H   0  0  0  0  0  0
    3.8536   -1.9763   -4.5282 H   0  0  0  0  0  0
    7.0551   -2.0992   -1.3321 H   0  0  0  0  0  0
    3.7492   -2.2985    1.5279 H   0  0  0  0  0  0
    3.0534   -0.8363   -2.4883 H   0  0  0  0  0  0
  1  2  1  0  0  0
  1 27  1  0  0  0
  1 28  1  0  0  0
  1 29  1  0  0  0
  2  3  1  0  0  0
  2 26  1  0  0  0
  2 30  1  0  0  0
  3  4  1  0  0  0
  3 31  1  0  0  0
  3 32  1  0  0  0
  4  5  1  0  0  0
  4 33  1  0  0  0
  5  6  2  0  0  0
  5  7  1  0  0  0
  7  8  1  0  0  0
  7 15  2  0  0  0
  8  9  2  0  0  0
  8 34  1  0  0  0
  9 10  1  0  0  0
 10 11  1  0  0  0
 10 15  1  0  0  0
 11 12  2  0  0  0
 11 35  1  0  0  0
 12 13  1  0  0  0
 12 16  1  0  0  0
 13 14  2  0  0  0
 13 36  1  0  0  0
 14 15  1  0  0  0
 16 17  1  0  0  0
 16 37  1  0  0  0
 17 18  1  0  0  0
 17 19  1  0  0  0
 17 38  1  0  0  0
 18 39  1  0  0  0
 18 40  1  0  0  0
 18 41  1  0  0  0
 19 20  1  0  0  0
 19 25  2  0  0  0
 20 21  2  0  0  0
 20 42  1  0  0  0
 21 22  1  0  0  0
 21 23  1  0  0  0
 23 24  2  0  0  0
 23 43  1  0  0  0
 24 25  1  0  0  0
 24 26  1  0  0  0
 25 44  1  0  0  0
M  END
> <i_epik_Tot_Q>
0

> <i_epik_Tot_abs_Q>
0

> <i_f3d_flags>
0

> <i_lp_mmshare_version>
64135

> <i_m_source_file_index>
1

> <b_lp_Chiralities_Consistent>
1

> <r_epik_Charging_Adjusted_Penalty>
0

> <r_epik_Ionization_Penalty>
7.71497e-06

> <r_epik_Ionization_Penalty_Charging>
0

> <r_epik_Ionization_Penalty_Neutral>
7.71497e-06

> <r_epik_State_Penalty>
-0

> <r_lp_Energy>
86.0739

> <r_lp_tautomer_probability>
1

> <s_epik_cmdline>
J2VwaWtfcHl0aG9uJywgJy1waCcsICc3LjAnLCAnLXRuJywgJzgnLCAnLW1hJywgJzIwMCcsICctaW1hZScsICc8aW5maWxlLm1hZT4nLCAnLW9tYWUnLCAnPG91dGZpbGUubWFlPic=

> <s_epik_input>
Tz1DMVtOSF1bQ0gyXVtDQEhdKFtDSDNdKU9jKFtjSF0yKVtjSF1jKEYpW2NIXWMyW0NAQEhdKFtDSDNdKVtOSF1jKFtjSF1uMylbY0hdbihjM2MxNCluW2NIXTQ=

> <s_lp_Force_Field>
OPLS_2005

> <s_lp_Variant>
MCD00032-1

> <s_m_source_file>
MCD00032.smi

$$$$
MCD00033
                    3D
 Schrodinger Suite 2023-4.
 45 48  0  0  1  0            999 V2000
    0.0079    0.0942   -0.1487 C   0  0  0  0  0  0
    1.4178   -0.0609   -0.2127 O   0  0  0  0  0  0
    1.9428   -1.3345   -0.1308 C   0  0  0  0  0  0
    1.1565   -2.5010   -0.0036 C   0  0  0  0  0  0
    1.7286   -3.7846    0.0788 C   0  0  0  0  0  0
    0.9952   -4.9107    0.2218 N   0  0  0  0  0  0
    1.6311   -6.0728    0.3192 C   0  0  0  0  0  0
    2.9460   -6.2555    0.2719 N   0  0  0  0  0  0
    3.7438   -5.1797    0.0955 C   0  0  0  0  0  0
    3.1493   -3.8825    0.0208 C   0  0  0  0  0  0
    3.9585   -2.7265   -0.0879 C   0  0  0  0  0  0
    3.3450   -1.4534   -0.1737 C   0  0  0  0  0  0
    4.0625   -0.2769   -0.2935 O   0  0  0  0  0  0
    5.4806   -0.3234   -0.4501 C   0  0  0  0  0  0
    6.2061   -0.5692    0.8901 C   0  0  0  0  0  0
    7.1608   -1.6155    0.7789 O   0  0  0  0  0  0
    8.3937   -1.2158    0.1996 C   0  0  0  0  0  0
    9.3159   -2.4362    0.0151 C   0  0  0  0  0  0
    9.1680   -3.0288   -1.2731 O   0  0  0  0  0  0
    8.0198   -3.7343   -1.5612 C   0  0  0  0  0  0
    7.6769   -3.8672   -2.9221 C   0  0  0  0  0  0
    6.4944   -4.5268   -3.3056 C   0  0  0  0  0  0
    5.6384   -5.0613   -2.3259 C   0  0  0  0  0  0
    5.9800   -4.9600   -0.9616 C   0  0  0  0  0  0
    7.1793   -4.3216   -0.5837 C   0  0  0  0  0  0
    5.1189   -5.4516    0.0258 N   0  0  0  0  0  0
   -0.2399    1.1534   -0.2173 H   0  0  0  0  0  0
   -0.3916   -0.2760    0.7964 H   0  0  0  0  0  0
   -0.4874   -0.4148   -0.9766 H   0  0  0  0  0  0
    0.0801   -2.4394    0.0395 H   0  0  0  0  0  0
    1.0207   -6.9545    0.4464 H   0  0  0  0  0  0
    5.0284   -2.8090   -0.0863 H   0  0  0  0  0  0
    5.7592   -1.0588   -1.2067 H   0  0  0  0  0  0
    5.8029    0.6356   -0.8560 H   0  0  0  0  0  0
    6.6570    0.3473    1.2736 H   0  0  0  0  0  0
    5.4841   -0.8844    1.6437 H   0  0  0  0  0  0
    8.2462   -0.7039   -0.7525 H   0  0  0  0  0  0
    8.8692   -0.5041    0.8759 H   0  0  0  0  0  0
   10.3471   -2.0843    0.0521 H   0  0  0  0  0  0
    9.2309   -3.1525    0.8322 H   0  0  0  0  0  0
    8.3175   -3.4398   -3.6796 H   0  0  0  0  0  0
    6.2367   -4.6088   -4.3511 H   0  0  0  0  0  0
    4.7210   -5.5472   -2.6254 H   0  0  0  0  0  0
    7.4142   -4.2551    0.4672 H   0  0  0  0  0  0
    5.3638   -6.3831    0.3296 H   0  0  0  0  0  0
  1  2  1  0  0  0
  1 27  1  0  0  0
  1 28  1  0  0  0
  1 29  1  0  0  0
  2  3  1  0  0  0
  3  4  2  0  0  0
  3 12  1  0  0  0
  4  5  1  0  0  0
  4 30  1  0  0  0
  5  6  2  0  0  0
  5 10  1  0  0  0
  6  7  1  0  0  0
  7  8  2  0  0  0
  7 31  1  0  0  0
  8  9  1  0  0  0
  9 10  2  0  0  0
  9 26  1  0  0  0
 10 11  1  0  0  0
 11 12  2  0  0  0
 11 32  1  0  0  0
 12 13  1  0  0  0
 13 14  1  0  0  0
 14 15  1  0  0  0
 14 33  1  0  0  0
 14 34  1  0  0  0
 15 16  1  0  0  0
 15 35  1  0  0  0
 15 36  1  0  0  0
 16 17  1  0  0  0
 17 18  1  0  0  0
 17 37  1  0  0  0
 17 38  1  0  0  0
 18 19  1  0  0  0
 18 39  1  0  0  0
 18 40  1  0  0  0
 19 20  1  0  0  0
 20 21  2  0  0  0
 20 25  1  0  0  0
 21 22  1  0  0  0
 21 41  1  0  0  0
 22 23  2  0  0  0
 22 42  1  0  0  0
 23 24  1  0  0  0
 23 43  1  0  0  0
 24 25  2  0  0  0
 24 26  1  0  0  0
 25 44  1  0  0  0
 26 45  1  0  0  0
M  END
> <i_epik_Tot_Q>
0

> <i_epik_Tot_abs_Q>
0

> <i_f3d_flags>
0

> <i_lp_mmshare_version>
64135

> <i_m_source_file_index>
1

> <b_lp_Chiralities_Consistent>
1

> <r_epik_Charging_Adjusted_Penalty>
0

> <r_epik_Ionization_Penalty>
0.00109076

> <r_epik_Ionization_Penalty_Charging>
0

> <r_epik_Ionization_Penalty_Neutral>
0.00109076

> <r_epik_State_Penalty>
-0

> <r_lp_Energy>
39.2381

> <r_lp_tautomer_probability>
1

> <s_epik_cmdline>
J2VwaWtfcHl0aG9uJywgJy1waCcsICc3LjAnLCAnLXRuJywgJzgnLCAnLW1hJywgJzIwMCcsICctaW1hZScsICc8aW5maWxlLm1hZT4nLCAnLW9tYWUnLCAnPG91dGZpbGUubWFlPic=

> <s_epik_input>
W0NIM11PYyhbY0hdMSljKFtjSF0yKU9bQ0gyXVtDSDJdT1tDSDJdW0NIMl1PYyhbY0hdMylbY0hdW2NIXVtjSF1jM1tOSF1jKGMyYzE0KW5bY0hdbjQ=

> <s_lp_Force_Field>
OPLS_2005

> <s_lp_Variant>
MCD00033-1

> <s_m_source_file>
MCD00033.smi

$$$$
MCD00034
                    3D
 Schrodinger Suite 2023-4.
 45 48  0  0  1  0            999 V2000
   -0.0093    0.0838   -0.1530 C   0  0  0  0  0  0
    1.4026   -0.0606   -0.1117 O   0  0  0  0  0  0
    1.9275   -1.3348   -0.0486 C   0  0  0  0  0  0
    1.1447   -2.5097    0.0242 C   0  0  0  0  0  0
    1.7253   -3.7931    0.0780 C   0  0  0  0  0  0
    1.0043   -4.9355    0.1227 N   0  0  0  0  0  0
    1.6548   -6.0949    0.1416 C   0  0  0  0  0  0
    2.9738   -6.2581    0.1113 N   0  0  0  0  0  0
    3.7607   -5.1587    0.0722 C   0  0  0  0  0  0
    3.1478   -3.8754    0.0689 C   0  0  0  0  0  0
    3.9582   -2.7185    0.0364 C   0  0  0  0  0  0
    3.3302   -1.4617   -0.0491 C   0  0  0  0  0  0
    4.1340   -0.3524   -0.1113 O   0  0  0  0  0  0
    4.3141    0.2053   -1.4113 C   0  0  0  0  0  0
    4.9972   -0.7662   -2.3920 C   0  0  0  0  0  0
    6.1967   -1.2443   -1.8068 O   0  0  0  0  0  0
    6.9116   -2.1498   -2.6323 C   0  0  0  0  0  0
    7.9183   -2.9047   -1.7504 C   0  0  0  0  0  0
    7.2613   -3.9360   -1.0155 O   0  0  0  0  0  0
    6.9073   -5.1135   -1.6487 C   0  0  0  0  0  0
    7.5692   -5.6151   -2.7983 C   0  0  0  0  0  0
    7.1726   -6.8336   -3.3798 C   0  0  0  0  0  0
    6.1149   -7.5701   -2.8203 C   0  0  0  0  0  0
    5.4474   -7.0824   -1.6831 C   0  0  0  0  0  0
    5.8314   -5.8539   -1.0990 C   0  0  0  0  0  0
    5.1526   -5.3240    0.0081 N   0  0  0  0  0  0
   -0.2593    1.1422   -0.2230 H   0  0  0  0  0  0
   -0.4766   -0.3059    0.7521 H   0  0  0  0  0  0
   -0.4360   -0.4140   -1.0250 H   0  0  0  0  0  0
    0.0670   -2.4558    0.0301 H   0  0  0  0  0  0
    1.0534   -6.9913    0.1767 H   0  0  0  0  0  0
    5.0363   -2.7706    0.0408 H   0  0  0  0  0  0
    3.3591    0.5418   -1.8159 H   0  0  0  0  0  0
    4.9314    1.0969   -1.3001 H   0  0  0  0  0  0
    4.3339   -1.5999   -2.6269 H   0  0  0  0  0  0
    5.2169   -0.2560   -3.3307 H   0  0  0  0  0  0
    6.2477   -2.8495   -3.1425 H   0  0  0  0  0  0
    7.4329   -1.5777   -3.4007 H   0  0  0  0  0  0
    8.7584   -3.2769   -2.3326 H   0  0  0  0  0  0
    8.3618   -2.2112   -1.0354 H   0  0  0  0  0  0
    8.3964   -5.0964   -3.2543 H   0  0  0  0  0  0
    7.6870   -7.2071   -4.2528 H   0  0  0  0  0  0
    5.8147   -8.5085   -3.2627 H   0  0  0  0  0  0
    4.6411   -7.6671   -1.2678 H   0  0  0  0  0  0
    5.6318   -4.4929    0.3236 H   0  0  0  0  0  0
  1  2  1  0  0  0
  1 27  1  0  0  0
  1 28  1  0  0  0
  1 29  1  0  0  0
  2  3  1  0  0  0
  3  4  2  0  0  0
  3 12  1  0  0  0
  4  5  1  0  0  0
  4 30  1  0  0  0
  5  6  2  0  0  0
  5 10  1  0  0  0
  6  7  1  0  0  0
  7  8  2  0  0  0
  7 31  1  0  0  0
  8  9  1  0  0  0
  9 10  2  0  0  0
  9 26  1  0  0  0
 10 11  1  0  0  0
 11 12  2  0  0  0
 11 32  1  0  0  0
 12 13  1  0  0  0
 13 14  1  0  0  0
 14 15  1  0  0  0
 14 33  1  0  0  0
 14 34  1  0  0  0
 15 16  1  0  0  0
 15 35  1  0  0  0
 15 36  1  0  0  0
 16 17  1  0  0  0
 17 18  1  0  0  0
 17 37  1  0  0  0
 17 38  1  0  0  0
 18 19  1  0  0  0
 18 39  1  0  0  0
 18 40  1  0  0  0
 19 20  1  0  0  0
 20 21  2  0  0  0
 20 25  1  0  0  0
 21 22  1  0  0  0
 21 41  1  0  0  0
 22 23  2  0  0  0
 22 42  1  0  0  0
 23 24  1  0  0  0
 23 43  1  0  0  0
 24 25  2  0  0  0
 24 44  1  0  0  0
 25 26  1  0  0  0
 26 45  1  0  0  0
M  END
> <i_epik_Tot_Q>
0

> <i_epik_Tot_abs_Q>
0

> <i_f3d_flags>
0

> <i_lp_mmshare_version>
64135

> <i_m_source_file_index>
1

> <b_lp_Chiralities_Consistent>
1

> <r_epik_Charging_Adjusted_Penalty>
0

> <r_epik_Ionization_Penalty>
0.00109076

> <r_epik_Ionization_Penalty_Charging>
0

> <r_epik_Ionization_Penalty_Neutral>
0.00109076

> <r_epik_State_Penalty>
-0

> <r_lp_Energy>
39.016

> <r_lp_tautomer_probability>
1

> <s_epik_cmdline>
J2VwaWtfcHl0aG9uJywgJy1waCcsICc3LjAnLCAnLXRuJywgJzgnLCAnLW1hJywgJzIwMCcsICctaW1hZScsICc8aW5maWxlLm1hZT4nLCAnLW9tYWUnLCAnPG91dGZpbGUubWFlPic=

> <s_epik_input>
W0NIM11PYyhbY0hdMSljKFtjSF0yKU9bQ0gyXVtDSDJdT1tDSDJdW0NIMl1PYyhbY0hdW2NIXVtjSF1bY0hdMyljM1tOSF1jKGMyYzE0KW5bY0hdbjQ=

> <s_lp_Force_Field>
OPLS_2005

> <s_lp_Variant>
MCD00034-1

> <s_m_source_file>
MCD00034.smi

$$$$
MCD00035
                    3D
 Schrodinger Suite 2023-4.
 52 55  0  0  1  0            999 V2000
   -2.1126    2.6105   -4.2828 C   0  0  0  0  0  0
   -1.0219    2.2083   -3.4866 C   0  0  0  0  0  0
   -1.2629    1.8044   -2.1494 C   0  0  0  0  0  0
   -2.5980    1.8301   -1.6898 C   0  0  0  0  0  0
   -3.6156    2.2516   -2.5692 C   0  0  0  0  0  0
   -3.3868    2.6357   -3.8418 N   0  0  0  0  0  0
   -2.9233    1.4586   -0.4111 O   0  0  0  0  0  0
   -1.9292    1.0152    0.4277 C   0  0  0  0  0  0
   -2.2530    0.5924    1.7306 C   0  0  0  0  0  0
   -1.2707    0.1257    2.6223 C   0  0  0  0  0  0
    0.0884    0.0625    2.2308 C   0  0  0  0  0  0
    0.4790    0.4808    0.9403 C   0  0  0  0  0  0
   -0.5560    0.9406    0.0915 C   0  0  0  0  0  0
   -0.2655    1.3771   -1.2459 N   0  0  0  0  0  0
    1.1433    1.4483   -1.6778 C   0  0  0  0  0  0
    1.5693    0.2634   -2.5760 C   0  0  0  0  0  0
    1.8836   -1.0506   -1.8412 C   0  0  0  0  0  0
    3.2814   -1.0754   -1.1967 C   0  0  0  0  0  0
    3.5542   -2.3687   -0.4140 C   0  0  0  0  0  0
    2.8569   -2.3567    0.8857 N   0  3  0  0  0  0
    2.9004   -3.6362    1.6217 C   0  0  0  0  0  0
    2.2525   -3.4756    3.0004 C   0  0  0  0  0  0
    0.8985   -3.1000    2.7985 O   0  0  0  0  0  0
    0.2502   -2.5214    3.9228 C   0  0  0  0  0  0
    0.7910   -1.1099    4.2380 C   0  0  0  0  0  0
    1.1025   -0.3863    3.0496 O   0  0  0  0  0  0
   -1.9555    2.9197   -5.3056 H   0  0  0  0  0  0
   -0.0356    2.2147   -3.9235 H   0  0  0  0  0  0
   -4.6437    2.2811   -2.2396 H   0  0  0  0  0  0
   -3.2829    0.6265    2.0543 H   0  0  0  0  0  0
   -1.5904   -0.1777    3.6069 H   0  0  0  0  0  0
    1.5185    0.4084    0.6719 H   0  0  0  0  0  0
    1.2633    2.3679   -2.2495 H   0  0  0  0  0  0
    1.8495    1.6077   -0.8678 H   0  0  0  0  0  0
    0.7915    0.0693   -3.3146 H   0  0  0  0  0  0
    2.4457    0.5567   -3.1550 H   0  0  0  0  0  0
    1.1082   -1.2648   -1.1068 H   0  0  0  0  0  0
    1.8317   -1.8659   -2.5637 H   0  0  0  0  0  0
    4.0267   -0.9830   -1.9875 H   0  0  0  0  0  0
    3.4263   -0.2107   -0.5488 H   0  0  0  0  0  0
    3.2475   -3.2364   -0.9998 H   0  0  0  0  0  0
    4.6239   -2.4706   -0.2280 H   0  0  0  0  0  0
    3.2664   -1.6351    1.4620 H   0  0  0  0  0  0
    2.3853   -4.4068    1.0467 H   0  0  0  0  0  0
    3.9373   -3.9538    1.7366 H   0  0  0  0  0  0
    2.2930   -4.4091    3.5627 H   0  0  0  0  0  0
    2.8082   -2.7303    3.5688 H   0  0  0  0  0  0
   -0.8103   -2.4607    3.6803 H   0  0  0  0  0  0
    0.3286   -3.1737    4.7936 H   0  0  0  0  0  0
    0.1193   -0.5561    4.8939 H   0  0  0  0  0  0
    1.7198   -1.1973    4.8014 H   0  0  0  0  0  0
    1.8864   -2.1251    0.7261 H   0  0  0  0  0  0
  1  2  2  0  0  0
  1  6  1  0  0  0
  1 27  1  0  0  0
  2  3  1  0  0  0
  2 28  1  0  0  0
  3  4  2  0  0  0
  3 14  1  0  0  0
  4  5  1  0  0  0
  4  7  1  0  0  0
  5  6  2  0  0  0
  5 29  1  0  0  0
  7  8  1  0  0  0
  8  9  2  0  0  0
  8 13  1  0  0  0
  9 10  1  0  0  0
  9 30  1  0  0  0
 10 11  2  0  0  0
 10 31  1  0  0  0
 11 12  1  0  0  0
 11 26  1  0  0  0
 12 13  2  0  0  0
 12 32  1  0  0  0
 13 14  1  0  0  0
 14 15  1  0  0  0
 15 16  1  0  0  0
 15 33  1  0  0  0
 15 34  1  0  0  0
 16 17  1  0  0  0
 16 35  1  0  0  0
 16 36  1  0  0  0
 17 18  1  0  0  0
 17 37  1  0  0  0
 17 38  1  0  0  0
 18 19  1  0  0  0
 18 39  1  0  0  0
 18 40  1  0  0  0
 19 20  1  0  0  0
 19 41  1  0  0  0
 19 42  1  0  0  0
 20 21  1  0  0  0
 20 43  1  0  0  0
 20 52  1  0  0  0
 21 22  1  0  0  0
 21 44  1  0  0  0
 21 45  1  0  0  0
 22 23  1  0  0  0
 22 46  1  0  0  0
 22 47  1  0  0  0
 23 24  1  0  0  0
 24 25  1  0  0  0
 24 48  1  0  0  0
 24 49  1  0  0  0
 25 26  1  0  0  0
 25 50  1  0  0  0
 25 51  1  0  0  0
M  CHG  1  20   1
M  END
> <i_epik_Tot_Q>
1

> <i_epik_Tot_abs_Q>
1

> <i_f3d_flags>
0

> <i_lp_mmshare_version>
64135

> <i_m_source_file_index>
1

> <b_lp_Chiralities_Consistent>
1

> <r_epik_Charging_Adjusted_Penalty>
0.00154498

> <r_epik_Ionization_Penalty>
0.00643872

> <r_epik_Ionization_Penalty_Charging>
0.00154498

> <r_epik_Ionization_Penalty_Neutral>
0.00489375

> <r_epik_State_Penalty>
-0

> <r_lp_Energy>
35.8759

> <r_lp_tautomer_probability>
1

> <s_epik_cmdline>
J2VwaWtfcHl0aG9uJywgJy1waCcsICc3LjAnLCAnLXRuJywgJzgnLCAnLW1hJywgJzIwMCcsICctaW1hZScsICc8aW5maWxlLm1hZT4nLCAnLW9tYWUnLCAnPG91dGZpbGUubWFlPic=

> <s_epik_input>
W2NIXTFbY0hdbltjSF1jKGMxMilPYzNjNE4yW0NIMl1bQ0gyXVtDSDJdW0NIMl1bQ0gyXVtOSF1bQ0gyXVtDSDJdT1tDSDJdW0NIMl1PYyhbY0hdNClbY0hdW2NIXTM=

> <s_lp_Force_Field>
OPLS_2005

> <s_lp_Variant>
MCD00035-1

> <s_m_source_file>
MCD00035.smi

$$$$
MCD00036
                    3D
 Schrodinger Suite 2023-4.
 52 55  0  0  1  0            999 V2000
   -1.9961    3.7705   -3.4550 C   0  0  0  0  0  0
   -1.9009    2.4180   -3.0701 C   0  0  0  0  0  0
   -1.3450    2.1151   -1.8065 C   0  0  0  0  0  0
   -0.9200    3.1843   -0.9877 C   0  0  0  0  0  0
   -1.0595    4.5009   -1.4706 C   0  0  0  0  0  0
   -1.5843    4.7956   -2.6789 N   0  0  0  0  0  0
   -0.3684    2.9553    0.2487 O   0  0  0  0  0  0
   -0.4757    1.6922    0.7824 C   0  0  0  0  0  0
   -0.1638    1.4467    2.1321 C   0  0  0  0  0  0
   -0.2986    0.1613    2.6909 C   0  0  0  0  0  0
   -0.7566   -0.9314    1.9237 C   0  0  0  0  0  0
   -1.0680   -0.7572    0.5485 C   0  0  0  0  0  0
   -0.8964    0.5547    0.0572 C   0  0  0  0  0  0
   -1.1966    0.8056   -1.3145 N   0  0  0  0  0  0
   -0.5707   -0.1418   -2.2521 C   0  0  0  0  0  0
    0.9649   -0.0296   -2.2683 C   0  0  0  0  0  0
    1.4967   -0.9194   -1.3016 O   0  0  0  0  0  0
    2.7512   -0.5121   -0.7844 C   0  0  0  0  0  0
    3.3432   -1.6770    0.0145 C   0  0  0  0  0  0
    2.4392   -2.0897    1.1061 N   0  3  0  0  0  0
    2.8972   -3.2815    1.8452 C   0  0  0  0  0  0
    1.7925   -3.8657    2.7414 C   0  0  0  0  0  0
    0.7613   -4.7429    1.9983 C   0  0  0  0  0  0
   -0.2759   -4.0039    1.1269 C   0  0  0  0  0  0
   -1.3732   -3.2782    1.9284 C   0  0  0  0  0  0
   -0.8792   -2.1262    2.6020 O   0  0  0  0  0  0
   -2.4188    4.0361   -4.4126 H   0  0  0  0  0  0
   -2.2646    1.6466   -3.7321 H   0  0  0  0  0  0
   -0.7402    5.3401   -0.8702 H   0  0  0  0  0  0
    0.1733    2.2625    2.7546 H   0  0  0  0  0  0
   -0.0625    0.0149    3.7349 H   0  0  0  0  0  0
   -1.4278   -1.5601   -0.0743 H   0  0  0  0  0  0
   -0.8782   -1.1691   -2.0625 H   0  0  0  0  0  0
   -0.9289    0.0522   -3.2614 H   0  0  0  0  0  0
    1.3550   -0.3250   -3.2427 H   0  0  0  0  0  0
    1.2790    1.0028   -2.1007 H   0  0  0  0  0  0
    3.4285   -0.2449   -1.5973 H   0  0  0  0  0  0
    2.6244    0.3692   -0.1535 H   0  0  0  0  0  0
    3.5145   -2.5230   -0.6525 H   0  0  0  0  0  0
    4.3103   -1.3940    0.4318 H   0  0  0  0  0  0
    2.3186   -1.3232    1.7529 H   0  0  0  0  0  0
    3.2523   -4.0449    1.1515 H   0  0  0  0  0  0
    3.7530   -2.9901    2.4553 H   0  0  0  0  0  0
    2.2823   -4.5060    3.4759 H   0  0  0  0  0  0
    1.3104   -3.0826    3.3254 H   0  0  0  0  0  0
    1.2988   -5.4576    1.3740 H   0  0  0  0  0  0
    0.2271   -5.3501    2.7301 H   0  0  0  0  0  0
    0.2063   -3.3312    0.4201 H   0  0  0  0  0  0
   -0.7721   -4.7538    0.5098 H   0  0  0  0  0  0
   -2.2304   -3.0342    1.3007 H   0  0  0  0  0  0
   -1.7683   -3.9548    2.6864 H   0  0  0  0  0  0
    1.5423   -2.3051    0.6940 H   0  0  0  0  0  0
  1  2  2  0  0  0
  1  6  1  0  0  0
  1 27  1  0  0  0
  2  3  1  0  0  0
  2 28  1  0  0  0
  3  4  2  0  0  0
  3 14  1  0  0  0
  4  5  1  0  0  0
  4  7  1  0  0  0
  5  6  2  0  0  0
  5 29  1  0  0  0
  7  8  1  0  0  0
  8  9  2  0  0  0
  8 13  1  0  0  0
  9 10  1  0  0  0
  9 30  1  0  0  0
 10 11  2  0  0  0
 10 31  1  0  0  0
 11 12  1  0  0  0
 11 26  1  0  0  0
 12 13  2  0  0  0
 12 32  1  0  0  0
 13 14  1  0  0  0
 14 15  1  0  0  0
 15 16  1  0  0  0
 15 33  1  0  0  0
 15 34  1  0  0  0
 16 17  1  0  0  0
 16 35  1  0  0  0
 16 36  1  0  0  0
 17 18  1  0  0  0
 18 19  1  0  0  0
 18 37  1  0  0  0
 18 38  1  0  0  0
 19 20  1  0  0  0
 19 39  1  0  0  0
 19 40  1  0  0  0
 20 21  1  0  0  0
 20 41  1  0  0  0
 20 52  1  0  0  0
 21 22  1  0  0  0
 21 42  1  0  0  0
 21 43  1  0  0  0
 22 23  1  0  0  0
 22 44  1  0  0  0
 22 45  1  0  0  0
 23 24  1  0  0  0
 23 46  1  0  0  0
 23 47  1  0  0  0
 24 25  1  0  0  0
 24 48  1  0  0  0
 24 49  1  0  0  0
 25 26  1  0  0  0
 25 50  1  0  0  0
 25 51  1  0  0  0
M  CHG  1  20   1
M  END
> <i_epik_Tot_Q>
1

> <i_epik_Tot_abs_Q>
1

> <i_f3d_flags>
0

> <i_lp_mmshare_version>
64135

> <i_m_source_file_index>
1

> <b_lp_Chiralities_Consistent>
1

> <r_epik_Charging_Adjusted_Penalty>
0.00802142

> <r_epik_Ionization_Penalty>
0.00803837

> <r_epik_Ionization_Penalty_Charging>
0.0015514

> <r_epik_Ionization_Penalty_Neutral>
0.00648697

> <r_epik_State_Penalty>
0.00647002

> <r_lp_Energy>
34.2828

> <r_lp_tautomer_probability>
1

> <s_epik_cmdline>
J2VwaWtfcHl0aG9uJywgJy1waCcsICc3LjAnLCAnLXRuJywgJzgnLCAnLW1hJywgJzIwMCcsICctaW1hZScsICc8aW5maWxlLm1hZT4nLCAnLW9tYWUnLCAnPG91dGZpbGUubWFlPic=

> <s_epik_input>
W2NIXTFbY0hdbltjSF1jKGMxMilPYzNjNE4yW0NIMl1bQ0gyXU9bQ0gyXVtDSDJdW05IXVtDSDJdW0NIMl1bQ0gyXVtDSDJdW0NIMl1PYyhbY0hdNClbY0hdW2NIXTM=

> <s_lp_Force_Field>
OPLS_2005

> <s_lp_Variant>
MCD00036-1

> <s_m_source_file>
MCD00036.smi

$$$$
MCD00036
                    3D
 Schrodinger Suite 2023-4.
 53 56  0  0  1  0            999 V2000
   -3.6922   -3.8302   -0.6372 C   0  0  0  0  0  0
   -3.0386   -2.6257   -0.3064 C   0  0  0  0  0  0
   -1.7442   -2.3770   -0.8243 C   0  0  0  0  0  0
   -1.1421   -3.3514   -1.6558 C   0  0  0  0  0  0
   -1.8489   -4.5348   -1.9517 C   0  0  0  0  0  0
   -3.0828   -4.7301   -1.4388 N   0  3  0  0  0  0
    0.1104   -3.1584   -2.1883 O   0  0  0  0  0  0
    0.8541   -2.0818   -1.7602 C   0  0  0  0  0  0
    2.2016   -1.9320   -2.1464 C   0  0  0  0  0  0
    2.9833   -0.8506   -1.6900 C   0  0  0  0  0  0
    2.4449    0.1153   -0.8142 C   0  0  0  0  0  0
    1.0861    0.0509   -0.4273 C   0  0  0  0  0  0
    0.3607   -1.0538   -0.9257 C   0  0  0  0  0  0
   -1.0090   -1.2120   -0.5498 N   0  0  0  0  0  0
   -1.7507    0.0258   -0.2733 C   0  0  0  0  0  0
   -1.7688    0.4053    1.2183 C   0  0  0  0  0  0
   -1.9459    1.8120    1.2669 O   0  0  0  0  0  0
   -1.3482    2.4533    2.3814 C   0  0  0  0  0  0
   -1.3272    3.9569    2.0627 C   0  0  0  0  0  0
   -0.5342    4.7620    3.0201 N   0  3  0  0  0  0
    0.9356    4.5563    3.0221 C   0  0  0  0  0  0
    1.6123    4.8414    1.6612 C   0  0  0  0  0  0
    1.9493    3.5666    0.8639 C   0  0  0  0  0  0
    3.2218    2.8582    1.3636 C   0  0  0  0  0  0
    3.2726    1.3582    1.0378 C   0  0  0  0  0  0
    3.2696    1.1234   -0.3698 O   0  0  0  0  0  0
   -4.6768   -4.0999   -0.2843 H   0  0  0  0  0  0
   -3.5311   -1.9191    0.3447 H   0  0  0  0  0  0
   -1.4657   -5.3257   -2.5798 H   0  0  0  0  0  0
    2.6503   -2.6683   -2.7972 H   0  0  0  0  0  0
    4.0169   -0.7771   -1.9947 H   0  0  0  0  0  0
    0.6646    0.8028    0.2171 H   0  0  0  0  0  0
   -1.3126    0.8385   -0.8543 H   0  0  0  0  0  0
   -2.7722   -0.0345   -0.6495 H   0  0  0  0  0  0
   -2.5718   -0.1013    1.7543 H   0  0  0  0  0  0
   -0.8345    0.1073    1.6958 H   0  0  0  0  0  0
   -1.9093    2.2430    3.2925 H   0  0  0  0  0  0
   -0.3332    2.0835    2.5253 H   0  0  0  0  0  0
   -0.9568    4.1243    1.0514 H   0  0  0  0  0  0
   -2.3496    4.3356    2.0705 H   0  0  0  0  0  0
   -0.7000    5.7352    2.8057 H   0  0  0  0  0  0
    1.3381    5.2491    3.7617 H   0  0  0  0  0  0
    1.1803    3.5605    3.3914 H   0  0  0  0  0  0
    0.9854    5.5034    1.0626 H   0  0  0  0  0  0
    2.5356    5.3980    1.8271 H   0  0  0  0  0  0
    1.1006    2.8881    0.8941 H   0  0  0  0  0  0
    2.0842    3.8190   -0.1884 H   0  0  0  0  0  0
    4.1007    3.3586    0.9555 H   0  0  0  0  0  0
    3.2977    2.9615    2.4462 H   0  0  0  0  0  0
    4.2013    0.9433    1.4304 H   0  0  0  0  0  0
    2.4773    0.8417    1.5760 H   0  0  0  0  0  0
   -0.8827    4.5826    3.9511 H   0  0  0  0  0  0
   -3.5744   -5.5952   -1.6653 H   0  0  0  0  0  0
  1  2  2  0  0  0
  1  6  1  0  0  0
  1 27  1  0  0  0
  2  3  1  0  0  0
  2 28  1  0  0  0
  3  4  2  0  0  0
  3 14  1  0  0  0
  4  5  1  0  0  0
  4  7  1  0  0  0
  5  6  2  0  0  0
  5 29  1  0  0  0
  6 53  1  0  0  0
  7  8  1  0  0  0
  8  9  2  0  0  0
  8 13  1  0  0  0
  9 10  1  0  0  0
  9 30  1  0  0  0
 10 11  2  0  0  0
 10 31  1  0  0  0
 11 12  1  0  0  0
 11 26  1  0  0  0
 12 13  2  0  0  0
 12 32  1  0  0  0
 13 14  1  0  0  0
 14 15  1  0  0  0
 15 16  1  0  0  0
 15 33  1  0  0  0
 15 34  1  0  0  0
 16 17  1  0  0  0
 16 35  1  0  0  0
 16 36  1  0  0  0
 17 18  1  0  0  0
 18 19  1  0  0  0
 18 37  1  0  0  0
 18 38  1  0  0  0
 19 20  1  0  0  0
 19 39  1  0  0  0
 19 40  1  0  0  0
 20 21  1  0  0  0
 20 41  1  0  0  0
 20 52  1  0  0  0
 21 22  1  0  0  0
 21 42  1  0  0  0
 21 43  1  0  0  0
 22 23  1  0  0  0
 22 44  1  0  0  0
 22 45  1  0  0  0
 23 24  1  0  0  0
 23 46  1  0  0  0
 23 47  1  0  0  0
 24 25  1  0  0  0
 24 48  1  0  0  0
 24 49  1  0  0  0
 25 26  1  0  0  0
 25 50  1  0  0  0
 25 51  1  0  0  0
M  CHG  2   6   1  20   1
M  END
> <i_epik_Tot_Q>
2

> <i_epik_Tot_abs_Q>
2

> <i_f3d_flags>
0

> <i_lp_mmshare_version>
64135

> <i_m_source_file_index>
1

> <b_lp_Chiralities_Consistent>
1

> <r_epik_Charging_Adjusted_Penalty>
5.36071

> <r_epik_Ionization_Penalty>
2.68113

> <r_epik_Ionization_Penalty_Charging>
2.68113

> <r_epik_Ionization_Penalty_Neutral>
1.80258e-09

> <r_epik_State_Penalty>
2.67958

> <r_lp_Energy>
48.1805

> <r_lp_tautomer_probability>
1

> <s_epik_cmdline>
J2VwaWtfcHl0aG9uJywgJy1waCcsICc3LjAnLCAnLXRuJywgJzgnLCAnLW1hJywgJzIwMCcsICctaW1hZScsICc8aW5maWxlLm1hZT4nLCAnLW9tYWUnLCAnPG91dGZpbGUubWFlPic=

> <s_epik_input>
W2NIXTFbY0hdbltjSF1jKGMxMilPYzNjNE4yW0NIMl1bQ0gyXU9bQ0gyXVtDSDJdW05IXVtDSDJdW0NIMl1bQ0gyXVtDSDJdW0NIMl1PYyhbY0hdNClbY0hdW2NIXTM=

> <s_lp_Force_Field>
OPLS_2005

> <s_lp_Variant>
MCD00036-2

> <s_m_source_file>
MCD00036.smi

$$$$
MCD00037
                    3D
 Schrodinger Suite 2023-4.
 41 44  0  0  1  0            999 V2000
   -1.7523   -2.2368    5.0246 F   0  0  0  0  0  0
   -1.3627   -1.4428    3.9987 C   0  0  0  0  0  0
   -0.6087   -1.9887    2.9413 C   0  0  0  0  0  0
   -0.2034   -1.1708    1.8612 C   0  0  0  0  0  0
   -0.5474    0.1987    1.8622 C   0  0  0  0  0  0
   -1.3083    0.7426    2.9165 C   0  0  0  0  0  0
   -1.7170   -0.0786    3.9848 C   0  0  0  0  0  0
   -2.6429    0.5928    5.2776 Cl  0  0  0  0  0  0
   -0.0697    1.0103    0.8293 N   0  0  0  0  0  0
   -0.8152    1.3641   -0.3011 C   0  0  0  0  0  0
   -2.0962    1.7651   -0.1332 N   0  0  0  0  0  0
   -2.8040    2.0849   -1.2117 C   0  0  0  0  0  0
   -2.3828    2.0402   -2.4717 N   0  0  0  0  0  0
   -1.1160    1.6360   -2.7135 C   0  0  0  0  0  0
   -0.5681    1.5283   -4.0050 C   0  0  0  0  0  0
    0.7459    1.0818   -4.2085 C   0  0  0  0  0  0
    1.5637    0.7368   -3.1193 C   0  0  0  0  0  0
    1.0629    0.8541   -1.7995 C   0  0  0  0  0  0
   -0.2758    1.2867   -1.6157 C   0  0  0  0  0  0
    2.8363    0.3020   -3.4305 O   0  0  0  0  0  0
    3.7220   -0.1471   -2.4055 C   0  0  0  0  0  0
    3.4208   -1.5905   -1.9570 C   0  0  0  0  0  0
    2.7370   -1.5783   -0.7153 O   0  0  0  0  0  0
    2.1940   -2.8370   -0.3499 C   0  0  0  0  0  0
    1.4411   -2.6710    0.9750 C   0  0  0  0  0  0
    0.4772   -1.6525    0.7669 O   0  0  0  0  0  0
   -0.3688   -3.0407    2.9622 H   0  0  0  0  0  0
   -1.5655    1.7920    2.9144 H   0  0  0  0  0  0
    0.8625    0.7318    0.5594 H   0  0  0  0  0  0
   -3.8211    2.4093   -1.0489 H   0  0  0  0  0  0
   -1.1751    1.7851   -4.8608 H   0  0  0  0  0  0
    1.1306    1.0015   -5.2147 H   0  0  0  0  0  0
    1.6791    0.6119   -0.9501 H   0  0  0  0  0  0
    4.7133   -0.1372   -2.8592 H   0  0  0  0  0  0
    3.7884    0.5481   -1.5680 H   0  0  0  0  0  0
    2.8475   -2.1104   -2.7264 H   0  0  0  0  0  0
    4.3527   -2.1417   -1.8235 H   0  0  0  0  0  0
    1.5092   -3.1889   -1.1229 H   0  0  0  0  0  0
    2.9888   -3.5769   -0.2472 H   0  0  0  0  0  0
    0.9652   -3.6127    1.2491 H   0  0  0  0  0  0
    2.1292   -2.3888    1.7735 H   0  0  0  0  0  0
  1  2  1  0  0  0
  2  3  2  0  0  0
  2  7  1  0  0  0
  3  4  1  0  0  0
  3 27  1  0  0  0
  4  5  2  0  0  0
  4 26  1  0  0  0
  5  6  1  0  0  0
  5  9  1  0  0  0
  6  7  2  0  0  0
  6 28  1  0  0  0
  7  8  1  0  0  0
  9 10  1  0  0  0
  9 29  1  0  0  0
 10 11  2  0  0  0
 10 19  1  0  0  0
 11 12  1  0  0  0
 12 13  2  0  0  0
 12 30  1  0  0  0
 13 14  1  0  0  0
 14 15  2  0  0  0
 14 19  1  0  0  0
 15 16  1  0  0  0
 15 31  1  0  0  0
 16 17  2  0  0  0
 16 32  1  0  0  0
 17 18  1  0  0  0
 17 20  1  0  0  0
 18 19  2  0  0  0
 18 33  1  0  0  0
 20 21  1  0  0  0
 21 22  1  0  0  0
 21 34  1  0  0  0
 21 35  1  0  0  0
 22 23  1  0  0  0
 22 36  1  0  0  0
 22 37  1  0  0  0
 23 24  1  0  0  0
 24 25  1  0  0  0
 24 38  1  0  0  0
 24 39  1  0  0  0
 25 26  1  0  0  0
 25 40  1  0  0  0
 25 41  1  0  0  0
M  END
> <i_epik_Tot_Q>
0

> <i_epik_Tot_abs_Q>
0

> <i_f3d_flags>
0

> <i_lp_mmshare_version>
64135

> <i_m_source_file_index>
1

> <b_lp_Chiralities_Consistent>
1

> <r_epik_Charging_Adjusted_Penalty>
0.000330712

> <r_epik_Ionization_Penalty>
0.000423307

> <r_epik_Ionization_Penalty_Charging>
0

> <r_epik_Ionization_Penalty_Neutral>
0.000423307

> <r_epik_State_Penalty>
0.000330712

> <r_lp_Energy>
31.4724

> <r_lp_tautomer_probability>
0.999989

> <s_epik_cmdline>
J2VwaWtfcHl0aG9uJywgJy1waCcsICc3LjAnLCAnLXRuJywgJzgnLCAnLW1hJywgJzIwMCcsICctaW1hZScsICc8aW5maWxlLm1hZT4nLCAnLW9tYWUnLCAnPG91dGZpbGUubWFlPic=

> <s_epik_input>
RmMoW2NIXTEpYyhDbClbY0hdYyhjMTIpW05IXWMzYzRjKG5bY0hdbjMpW2NIXVtjSF1jKFtjSF00KU9bQ0gyXVtDSDJdT1tDSDJdW0NIMl1PMg==

> <s_lp_Force_Field>
OPLS_2005

> <s_lp_Variant>
MCD00037-1

> <s_m_source_file>
MCD00037.smi

$$$$
MCD00038
                    3D
 Schrodinger Suite 2023-4.
 44 47  0  0  1  0            999 V2000
    0.0286   -0.2212    0.0572 C   0  0  0  0  0  0
    1.5436   -0.0270   -0.1104 C   0  0  1  0  0  0
    2.1875   -1.3435   -0.1465 N   0  0  0  0  0  0
    2.7898   -2.0604    0.8217 C   0  0  0  0  0  0
    3.0696   -3.2421    0.6352 O   0  0  0  0  0  0
    3.1030   -1.4146    2.1292 C   0  0  0  0  0  0
    2.8046   -1.9155    3.4126 C   0  0  0  0  0  0
    3.3134   -1.1236    4.3465 N   0  0  0  0  0  0
    3.9648   -0.1218    3.6313 N   0  0  0  0  0  0
    4.6543    0.9176    4.1821 C   0  0  0  0  0  0
    5.2296    1.8290    3.3185 C   0  0  0  0  0  0
    5.0770    1.6356    1.9164 C   0  0  0  0  0  0
    4.4372    0.5933    1.3856 N   0  0  0  0  0  0
    3.8700   -0.2597    2.2603 C   0  0  0  0  0  0
    5.5652    2.6001    1.0576 N   0  0  0  0  0  0
    4.6998    3.0232   -0.0453 C   0  0  2  0  0  0
    5.3717    4.1467   -0.8455 C   0  0  0  0  0  0
    3.2931    3.4391    0.4025 C   0  0  0  0  0  0
    3.1534    4.3442    1.4799 C   0  0  0  0  0  0
    1.8798    4.7303    1.9363 C   0  0  0  0  0  0
    1.7654    5.5932    2.9733 F   0  0  0  0  0  0
    0.7265    4.2229    1.3124 C   0  0  0  0  0  0
    0.8495    3.3295    0.2329 C   0  0  0  0  0  0
    2.1247    2.9247   -0.2178 C   0  0  0  0  0  0
    2.2093    2.0658   -1.3390 N   0  0  0  0  0  0
    1.9212    0.7518   -1.3878 C   0  0  0  0  0  0
    1.9547    0.1566   -2.4642 O   0  0  0  0  0  0
   -0.4970    0.7317    0.0994 H   0  0  0  0  0  0
   -0.1960   -0.7560    0.9807 H   0  0  0  0  0  0
   -0.3934   -0.7952   -0.7687 H   0  0  0  0  0  0
    1.8799    0.5327    0.7570 H   0  0  0  0  0  0
    2.0647   -1.8321   -1.0220 H   0  0  0  0  0  0
    2.2595   -2.8087    3.6804 H   0  0  0  0  0  0
    4.7043    0.9838    5.2640 H   0  0  0  0  0  0
    5.7609    2.6899    3.7112 H   0  0  0  0  0  0
    6.0685    3.3501    1.5086 H   0  0  0  0  0  0
    4.6250    2.1667   -0.7146 H   0  0  0  0  0  0
    4.7726    4.4174   -1.7154 H   0  0  0  0  0  0
    6.3538    3.8391   -1.2061 H   0  0  0  0  0  0
    5.5052    5.0444   -0.2410 H   0  0  0  0  0  0
    4.0304    4.7436    1.9680 H   0  0  0  0  0  0
   -0.2520    4.5256    1.6547 H   0  0  0  0  0  0
   -0.0414    2.9653   -0.2565 H   0  0  0  0  0  0
    2.5450    2.4853   -2.1940 H   0  0  0  0  0  0
  1  2  1  0  0  0
  1 28  1  0  0  0
  1 29  1  0  0  0
  1 30  1  0  0  0
  2  3  1  0  0  0
  2 26  1  0  0  0
  2 31  1  0  0  0
  3  4  1  0  0  0
  3 32  1  0  0  0
  4  5  2  0  0  0
  4  6  1  0  0  0
  6  7  1  0  0  0
  6 14  2  0  0  0
  7  8  2  0  0  0
  7 33  1  0  0  0
  8  9  1  0  0  0
  9 10  1  0  0  0
  9 14  1  0  0  0
 10 11  2  0  0  0
 10 34  1  0  0  0
 11 12  1  0  0  0
 11 35  1  0  0  0
 12 13  2  0  0  0
 12 15  1  0  0  0
 13 14  1  0  0  0
 15 16  1  0  0  0
 15 36  1  0  0  0
 16 17  1  0  0  0
 16 18  1  0  0  0
 16 37  1  0  0  0
 17 38  1  0  0  0
 17 39  1  0  0  0
 17 40  1  0  0  0
 18 19  2  0  0  0
 18 24  1  0  0  0
 19 20  1  0  0  0
 19 41  1  0  0  0
 20 21  1  0  0  0
 20 22  2  0  0  0
 22 23  1  0  0  0
 22 42  1  0  0  0
 23 24  2  0  0  0
 23 43  1  0  0  0
 24 25  1  0  0  0
 25 26  1  0  0  0
 25 44  1  0  0  0
 26 27  2  0  0  0
M  END
> <i_epik_Tot_Q>
0

> <i_epik_Tot_abs_Q>
0

> <i_f3d_flags>
0

> <i_lp_mmshare_version>
64135

> <i_m_source_file_index>
1

> <b_lp_Chiralities_Consistent>
1

> <r_epik_Charging_Adjusted_Penalty>
0

> <r_epik_Ionization_Penalty>
1.09246e-05

> <r_epik_Ionization_Penalty_Charging>
0

> <r_epik_Ionization_Penalty_Neutral>
1.09246e-05

> <r_epik_State_Penalty>
-0

> <r_lp_Energy>
52.3497

> <r_lp_tautomer_probability>
1

> <s_epik_cmdline>
J2VwaWtfcHl0aG9uJywgJy1waCcsICc3LjAnLCAnLXRuJywgJzgnLCAnLW1hJywgJzIwMCcsICctaW1hZScsICc8aW5maWxlLm1hZT4nLCAnLW9tYWUnLCAnPG91dGZpbGUubWFlPic=

> <s_epik_input>
Tz1DMVtOSF1bQ0BIXShbQ0gzXSlDKD1PKVtOSF1jKFtjSF1bY0hdYyhGKVtjSF0yKWMyW0NAQEhdKFtDSDNdKVtOSF1jKG4zKVtjSF1bY0hdbihjM2MxNCluW2NIXTQ=

> <s_lp_Force_Field>
OPLS_2005

> <s_lp_Variant>
MCD00038-1

> <s_m_source_file>
MCD00038.smi

$$$$
MCD00039
                    3D
 Schrodinger Suite 2023-4.
 47 50  0  0  1  0            999 V2000
    0.2681   -0.6180   -0.1279 C   0  0  0  0  0  0
    1.6806   -0.1085    0.1805 C   0  0  0  0  0  0
    2.5101   -0.9367    0.5579 O   0  0  0  0  0  0
    1.9788    1.2082    0.0108 N   0  0  0  0  0  0
    0.9893    2.2133   -0.4193 C   0  0  0  0  0  0
    0.2696    2.9227    0.7474 C   0  0  0  0  0  0
   -0.1628    1.9955    1.7375 O   0  0  0  0  0  0
   -0.7675    2.4853    2.8762 C   0  0  0  0  0  0
   -1.4380    3.7341    2.9135 C   0  0  0  0  0  0
   -2.0596    4.1808    4.0944 C   0  0  0  0  0  0
   -2.0198    3.3883    5.2543 C   0  0  0  0  0  0
   -2.6170    3.8180    6.3910 F   0  0  0  0  0  0
   -1.3530    2.1509    5.2327 C   0  0  0  0  0  0
   -0.7234    1.6965    4.0545 C   0  0  0  0  0  0
    0.0447    0.3779    4.1012 C   0  0  0  0  0  0
    1.3500    0.4613    4.7643 N   0  0  0  0  0  0
    1.4306    0.1203    6.1786 C   0  0  0  0  0  0
    2.2043    1.4439    4.2857 C   0  0  0  0  0  0
    2.6480    2.5242    5.1115 C   0  0  0  0  0  0
    3.3850    3.5431    4.5397 C   0  0  0  0  0  0
    3.6437    3.4625    3.2038 N   0  0  0  0  0  0
    4.3316    4.4248    2.4563 N   0  0  0  0  0  0
    4.3327    3.9500    1.2173 C   0  0  0  0  0  0
    3.6581    2.7187    1.1952 C   0  0  0  0  0  0
    3.2139    2.3747    2.4681 C   0  0  0  0  0  0
    2.5150    1.3528    2.9942 N   0  0  0  0  0  0
    3.3712    1.6967    0.1153 C   0  0  0  0  0  0
   -0.4960   -0.0627    0.4127 H   0  0  0  0  0  0
    0.1716   -1.6655    0.1598 H   0  0  0  0  0  0
    0.0620   -0.5505   -1.1964 H   0  0  0  0  0  0
    1.4792    2.9688   -1.0349 H   0  0  0  0  0  0
    0.2480    1.7689   -1.0827 H   0  0  0  0  0  0
    0.9335    3.6561    1.2065 H   0  0  0  0  0  0
   -0.5778    3.4667    0.3306 H   0  0  0  0  0  0
   -1.5009    4.3684    2.0436 H   0  0  0  0  0  0
   -2.5703    5.1323    4.1080 H   0  0  0  0  0  0
   -1.3154    1.5522    6.1309 H   0  0  0  0  0  0
   -0.5707   -0.3557    4.6232 H   0  0  0  0  0  0
    0.1777   -0.0201    3.0951 H   0  0  0  0  0  0
    2.4692    0.0499    6.5039 H   0  0  0  0  0  0
    0.9590   -0.8454    6.3615 H   0  0  0  0  0  0
    0.9235    0.8667    6.7902 H   0  0  0  0  0  0
    2.3821    2.5869    6.1611 H   0  0  0  0  0  0
    3.7435    4.4141    5.0784 H   0  0  0  0  0  0
    4.8085    4.4869    0.4100 H   0  0  0  0  0  0
    3.6283    2.1296   -0.8520 H   0  0  0  0  0  0
    4.0826    0.8769    0.2219 H   0  0  0  0  0  0
  1  2  1  0  0  0
  1 28  1  0  0  0
  1 29  1  0  0  0
  1 30  1  0  0  0
  2  3  2  0  0  0
  2  4  1  0  0  0
  4  5  1  0  0  0
  4 27  1  0  0  0
  5  6  1  0  0  0
  5 31  1  0  0  0
  5 32  1  0  0  0
  6  7  1  0  0  0
  6 33  1  0  0  0
  6 34  1  0  0  0
  7  8  1  0  0  0
  8  9  2  0  0  0
  8 14  1  0  0  0
  9 10  1  0  0  0
  9 35  1  0  0  0
 10 11  2  0  0  0
 10 36  1  0  0  0
 11 12  1  0  0  0
 11 13  1  0  0  0
 13 14  2  0  0  0
 13 37  1  0  0  0
 14 15  1  0  0  0
 15 16  1  0  0  0
 15 38  1  0  0  0
 15 39  1  0  0  0
 16 17  1  0  0  0
 16 18  1  0  0  0
 17 40  1  0  0  0
 17 41  1  0  0  0
 17 42  1  0  0  0
 18 19  1  0  0  0
 18 26  2  0  0  0
 19 20  2  0  0  0
 19 43  1  0  0  0
 20 21  1  0  0  0
 20 44  1  0  0  0
 21 22  1  0  0  0
 21 25  1  0  0  0
 22 23  2  0  0  0
 23 24  1  0  0  0
 23 45  1  0  0  0
 24 25  2  0  0  0
 24 27  1  0  0  0
 25 26  1  0  0  0
 27 46  1  0  0  0
 27 47  1  0  0  0
M  END
> <i_epik_Tot_Q>
0

> <i_epik_Tot_abs_Q>
0

> <i_f3d_flags>
0

> <i_lp_mmshare_version>
64135

> <i_m_source_file_index>
1

> <b_lp_Chiralities_Consistent>
1

> <r_epik_Charging_Adjusted_Penalty>
0

> <r_epik_Ionization_Penalty>
2.04393e-06

> <r_epik_Ionization_Penalty_Charging>
0

> <r_epik_Ionization_Penalty_Neutral>
2.04393e-06

> <r_epik_State_Penalty>
-0

> <r_lp_Energy>
51.8929

> <r_lp_tautomer_probability>
1

> <s_epik_cmdline>
J2VwaWtfcHl0aG9uJywgJy1waCcsICc3LjAnLCAnLXRuJywgJzgnLCAnLW1hJywgJzIwMCcsICctaW1hZScsICc8aW5maWxlLm1hZT4nLCAnLW9tYWUnLCAnPG91dGZpbGUubWFlPic=

> <s_epik_input>
TzFbQ0gyXVtDSDJdTihDKD1PKVtDSDNdKVtDSDJdYyhbY0hdbjIpYyhuMyluMltjSF1bY0hdYzNOKFtDSDNdKVtDSDJdYyhjMTQpW2NIXWMoRilbY0hdW2NIXTQ=

> <s_lp_Force_Field>
OPLS_2005

> <s_lp_Variant>
MCD00039-1

> <s_m_source_file>
MCD00039.smi

$$$$
MCD00040
                    3D
 Schrodinger Suite 2023-4.
 45 48  0  0  1  0            999 V2000
    0.3964    0.3550   -0.0991 C   0  0  0  0  0  0
    1.7796    0.0430   -0.1782 O   0  0  0  0  0  0
    2.1605   -1.2808   -0.0936 C   0  0  0  0  0  0
    1.2502   -2.3503    0.0457 C   0  0  0  0  0  0
    1.6773   -3.6881    0.1222 C   0  0  0  0  0  0
    0.8220   -4.7291    0.2251 N   0  0  0  0  0  0
    1.3224   -5.9589    0.2517 C   0  0  0  0  0  0
    2.6095   -6.2837    0.2048 N   0  0  0  0  0  0
    3.5258   -5.2929    0.1468 C   0  0  0  0  0  0
    3.0791   -3.9401    0.0698 C   0  0  0  0  0  0
    4.0156   -2.8889   -0.0764 C   0  0  0  0  0  0
    3.5404   -1.5557   -0.1503 C   0  0  0  0  0  0
    4.3699   -0.4644   -0.3121 O   0  0  0  0  0  0
    5.7364   -0.5463    0.0813 C   0  0  0  0  0  0
    5.8865   -0.3629    1.5988 C   0  0  0  0  0  0
    5.5736   -1.5622    2.2889 O   0  0  0  0  0  0
    5.7214   -1.4267    3.6933 C   0  0  0  0  0  0
    5.4025   -2.7466    4.4120 C   0  0  0  0  0  0
    6.4893   -3.6617    4.3071 O   0  0  0  0  0  0
    6.6419   -4.4130    3.1604 C   0  0  0  0  0  0
    7.9027   -5.0088    2.9582 C   0  0  0  0  0  0
    8.1496   -5.8023    1.8230 C   0  0  0  0  0  0
    9.7021   -6.5184    1.5915 Cl  0  0  0  0  0  0
    7.1291   -6.0154    0.8785 C   0  0  0  0  0  0
    5.8582   -5.4360    1.0610 C   0  0  0  0  0  0
    5.6189   -4.6395    2.2053 C   0  0  0  0  0  0
    4.8648   -5.7080    0.1077 N   0  0  0  0  0  0
    0.2677    1.4350   -0.1689 H   0  0  0  0  0  0
   -0.0307    0.0337    0.8519 H   0  0  0  0  0  0
   -0.1627   -0.0972   -0.9193 H   0  0  0  0  0  0
    0.1871   -2.1700    0.0873 H   0  0  0  0  0  0
    0.6157   -6.7726    0.3187 H   0  0  0  0  0  0
    5.0663   -3.1131   -0.1443 H   0  0  0  0  0  0
    6.2635   -1.4242   -0.2879 H   0  0  0  0  0  0
    6.2291    0.2961   -0.4043 H   0  0  0  0  0  0
    6.9200   -0.0915    1.8195 H   0  0  0  0  0  0
    5.2560    0.4585    1.9427 H   0  0  0  0  0  0
    6.7312   -1.1001    3.9473 H   0  0  0  0  0  0
    5.0344   -0.6554    4.0448 H   0  0  0  0  0  0
    5.3051   -2.5297    5.4758 H   0  0  0  0  0  0
    4.4371   -3.1596    4.1242 H   0  0  0  0  0  0
    8.6895   -4.8513    3.6815 H   0  0  0  0  0  0
    7.3247   -6.6314    0.0126 H   0  0  0  0  0  0
    4.6370   -4.2193    2.3441 H   0  0  0  0  0  0
    5.0079   -6.5945   -0.3543 H   0  0  0  0  0  0
  1  2  1  0  0  0
  1 28  1  0  0  0
  1 29  1  0  0  0
  1 30  1  0  0  0
  2  3  1  0  0  0
  3  4  2  0  0  0
  3 12  1  0  0  0
  4  5  1  0  0  0
  4 31  1  0  0  0
  5  6  2  0  0  0
  5 10  1  0  0  0
  6  7  1  0  0  0
  7  8  2  0  0  0
  7 32  1  0  0  0
  8  9  1  0  0  0
  9 10  2  0  0  0
  9 27  1  0  0  0
 10 11  1  0  0  0
 11 12  2  0  0  0
 11 33  1  0  0  0
 12 13  1  0  0  0
 13 14  1  0  0  0
 14 15  1  0  0  0
 14 34  1  0  0  0
 14 35  1  0  0  0
 15 16  1  0  0  0
 15 36  1  0  0  0
 15 37  1  0  0  0
 16 17  1  0  0  0
 17 18  1  0  0  0
 17 38  1  0  0  0
 17 39  1  0  0  0
 18 19  1  0  0  0
 18 40  1  0  0  0
 18 41  1  0  0  0
 19 20  1  0  0  0
 20 21  2  0  0  0
 20 26  1  0  0  0
 21 22  1  0  0  0
 21 42  1  0  0  0
 22 23  1  0  0  0
 22 24  2  0  0  0
 24 25  1  0  0  0
 24 43  1  0  0  0
 25 26  2  0  0  0
 25 27  1  0  0  0
 26 44  1  0  0  0
 27 45  1  0  0  0
M  END
> <i_epik_Tot_Q>
0

> <i_epik_Tot_abs_Q>
0

> <i_f3d_flags>
0

> <i_lp_mmshare_version>
64135

> <i_m_source_file_index>
1

> <b_lp_Chiralities_Consistent>
1

> <r_epik_Charging_Adjusted_Penalty>
0

> <r_epik_Ionization_Penalty>
0.0010872

> <r_epik_Ionization_Penalty_Charging>
0

> <r_epik_Ionization_Penalty_Neutral>
0.0010872

> <r_epik_State_Penalty>
-0

> <r_lp_Energy>
33.5198

> <r_lp_tautomer_probability>
1

> <s_epik_cmdline>
J2VwaWtfcHl0aG9uJywgJy1waCcsICc3LjAnLCAnLXRuJywgJzgnLCAnLW1hJywgJzIwMCcsICctaW1hZScsICc8aW5maWxlLm1hZT4nLCAnLW9tYWUnLCAnPG91dGZpbGUubWFlPic=

> <s_epik_input>
W0NIM11PYyhbY0hdMSljKFtjSF0yKU9bQ0gyXVtDSDJdT1tDSDJdW0NIMl1PYyhbY0hdMylbY0hdYyhDbClbY0hdYzNbTkhdYyhjMmMxNCluW2NIXW40

> <s_lp_Force_Field>
OPLS_2005

> <s_lp_Variant>
MCD00040-1

> <s_m_source_file>
MCD00040.smi

$$$$
MCD00041
                    3D
 Schrodinger Suite 2023-4.
 45 48  0  0  1  0            999 V2000
   -0.0068    0.1565   -0.0056 C   0  0  0  0  0  0
    1.4050    0.0047    0.0077 O   0  0  0  0  0  0
    1.9258   -1.2728    0.0079 C   0  0  0  0  0  0
    1.1375   -2.4474    0.0017 C   0  0  0  0  0  0
    1.7121   -3.7342   -0.0165 C   0  0  0  0  0  0
    0.9917   -4.8773   -0.0438 N   0  0  0  0  0  0
    1.6446   -6.0354   -0.0592 C   0  0  0  0  0  0
    2.9647   -6.1966   -0.0532 N   0  0  0  0  0  0
    3.7541   -5.0985   -0.0324 C   0  0  0  0  0  0
    3.1330   -3.8185   -0.0023 C   0  0  0  0  0  0
    3.9426   -2.6620    0.0327 C   0  0  0  0  0  0
    3.3286   -1.3947   -0.0014 C   0  0  0  0  0  0
    4.0873   -0.2465   -0.0176 O   0  0  0  0  0  0
    5.1121   -0.1666   -1.0105 C   0  0  0  0  0  0
    6.5105   -0.5748   -0.5054 C   0  0  0  0  0  0
    6.8439   -1.8753   -0.9721 O   0  0  0  0  0  0
    8.1298   -2.3115   -0.5632 C   0  0  0  0  0  0
    8.3459   -3.7671   -1.0033 C   0  0  0  0  0  0
    7.8003   -4.6527   -0.0290 O   0  0  0  0  0  0
    7.4111   -5.8868   -0.5031 C   0  0  0  0  0  0
    8.3576   -6.8445   -0.9475 C   0  0  0  0  0  0
   10.0579   -6.5476   -0.8623 Cl  0  0  0  0  0  0
    7.9220   -8.0889   -1.4388 C   0  0  0  0  0  0
    6.5508   -8.3918   -1.4790 C   0  0  0  0  0  0
    5.6086   -7.4584   -1.0117 C   0  0  0  0  0  0
    6.0292   -6.2047   -0.5063 C   0  0  0  0  0  0
    5.1564   -5.2172   -0.0167 N   0  0  0  0  0  0
   -0.2535    1.2182   -0.0098 H   0  0  0  0  0  0
   -0.4648   -0.2843    0.8808 H   0  0  0  0  0  0
   -0.4469   -0.2870   -0.8997 H   0  0  0  0  0  0
    0.0600   -2.3895   -0.0008 H   0  0  0  0  0  0
    1.0443   -6.9329   -0.0793 H   0  0  0  0  0  0
    5.0108   -2.7391    0.0943 H   0  0  0  0  0  0
    4.8435   -0.7098   -1.9186 H   0  0  0  0  0  0
    5.1509    0.8829   -1.3028 H   0  0  0  0  0  0
    7.2509    0.1275   -0.8916 H   0  0  0  0  0  0
    6.5549   -0.5229    0.5834 H   0  0  0  0  0  0
    8.8760   -1.6724   -1.0374 H   0  0  0  0  0  0
    8.2588   -2.2169    0.5162 H   0  0  0  0  0  0
    7.9214   -3.9339   -1.9953 H   0  0  0  0  0  0
    9.4176   -3.9438   -1.0781 H   0  0  0  0  0  0
    8.6424   -8.8179   -1.7799 H   0  0  0  0  0  0
    6.2201   -9.3469   -1.8596 H   0  0  0  0  0  0
    4.5707   -7.7403   -1.0586 H   0  0  0  0  0  0
    5.6295   -4.3497    0.1916 H   0  0  0  0  0  0
  1  2  1  0  0  0
  1 28  1  0  0  0
  1 29  1  0  0  0
  1 30  1  0  0  0
  2  3  1  0  0  0
  3  4  2  0  0  0
  3 12  1  0  0  0
  4  5  1  0  0  0
  4 31  1  0  0  0
  5  6  2  0  0  0
  5 10  1  0  0  0
  6  7  1  0  0  0
  7  8  2  0  0  0
  7 32  1  0  0  0
  8  9  1  0  0  0
  9 10  2  0  0  0
  9 27  1  0  0  0
 10 11  1  0  0  0
 11 12  2  0  0  0
 11 33  1  0  0  0
 12 13  1  0  0  0
 13 14  1  0  0  0
 14 15  1  0  0  0
 14 34  1  0  0  0
 14 35  1  0  0  0
 15 16  1  0  0  0
 15 36  1  0  0  0
 15 37  1  0  0  0
 16 17  1  0  0  0
 17 18  1  0  0  0
 17 38  1  0  0  0
 17 39  1  0  0  0
 18 19  1  0  0  0
 18 40  1  0  0  0
 18 41  1  0  0  0
 19 20  1  0  0  0
 20 21  2  0  0  0
 20 26  1  0  0  0
 21 22  1  0  0  0
 21 23  1  0  0  0
 23 24  2  0  0  0
 23 42  1  0  0  0
 24 25  1  0  0  0
 24 43  1  0  0  0
 25 26  2  0  0  0
 25 44  1  0  0  0
 26 27  1  0  0  0
 27 45  1  0  0  0
M  END
> <i_epik_Tot_Q>
0

> <i_epik_Tot_abs_Q>
0

> <i_f3d_flags>
0

> <i_lp_mmshare_version>
64135

> <i_m_source_file_index>
1

> <b_lp_Chiralities_Consistent>
1

> <r_epik_Charging_Adjusted_Penalty>
0

> <r_epik_Ionization_Penalty>
0.0010867

> <r_epik_Ionization_Penalty_Charging>
0

> <r_epik_Ionization_Penalty_Neutral>
0.0010867

> <r_epik_State_Penalty>
-0

> <r_lp_Energy>
40.4985

> <r_lp_tautomer_probability>
1

> <s_epik_cmdline>
J2VwaWtfcHl0aG9uJywgJy1waCcsICc3LjAnLCAnLXRuJywgJzgnLCAnLW1hJywgJzIwMCcsICctaW1hZScsICc8aW5maWxlLm1hZT4nLCAnLW9tYWUnLCAnPG91dGZpbGUubWFlPic=

> <s_epik_input>
W0NIM11PYyhbY0hdMSljKFtjSF0yKU9bQ0gyXVtDSDJdT1tDSDJdW0NIMl1PYyhjKENsKVtjSF1bY0hdW2NIXTMpYzNbTkhdYyhjMmMxNCluW2NIXW40

> <s_lp_Force_Field>
OPLS_2005

> <s_lp_Variant>
MCD00041-1

> <s_m_source_file>
MCD00041.smi

$$$$
MCD00042
                    3D
 Schrodinger Suite 2023-4.
 45 48  0  0  1  0            999 V2000
    0.1312    0.2080   -0.0528 C   0  0  0  0  0  0
    1.5356    0.0075    0.0099 O   0  0  0  0  0  0
    2.0155   -1.2866    0.0027 C   0  0  0  0  0  0
    1.1873   -2.4286   -0.0416 C   0  0  0  0  0  0
    1.7145   -3.7326   -0.0421 C   0  0  0  0  0  0
    0.9405   -4.8401   -0.0541 N   0  0  0  0  0  0
    1.5342   -6.0275   -0.0154 C   0  0  0  0  0  0
    2.8433   -6.2500    0.0165 N   0  0  0  0  0  0
    3.6808   -5.1908   -0.0136 C   0  0  0  0  0  0
    3.1323   -3.8738   -0.0113 C   0  0  0  0  0  0
    3.9881   -2.7479    0.0422 C   0  0  0  0  0  0
    3.4135   -1.4522    0.0417 C   0  0  0  0  0  0
    4.1601   -0.2931    0.1097 O   0  0  0  0  0  0
    5.5252   -0.3021   -0.2978 C   0  0  0  0  0  0
    5.6449   -0.2147   -1.8268 C   0  0  0  0  0  0
    5.3964   -1.4744   -2.4304 O   0  0  0  0  0  0
    5.4913   -1.4196   -3.8451 C   0  0  0  0  0  0
    5.2322   -2.7985   -4.4714 C   0  0  0  0  0  0
    6.3788   -3.6363   -4.3601 O   0  0  0  0  0  0
    6.6283   -4.2984   -3.1763 C   0  0  0  0  0  0
    7.9343   -4.7911   -2.9915 C   0  0  0  0  0  0
    8.2800   -5.4877   -1.8203 C   0  0  0  0  0  0
    7.3182   -5.7099   -0.8174 C   0  0  0  0  0  0
    7.7815   -6.5782    0.6049 Cl  0  0  0  0  0  0
    5.9982   -5.2314   -0.9825 C   0  0  0  0  0  0
    5.6621   -4.5317   -2.1659 C   0  0  0  0  0  0
    5.0483   -5.4986    0.0178 N   0  0  0  0  0  0
   -0.0796    1.2772   -0.0468 H   0  0  0  0  0  0
   -0.3736   -0.2309    0.8088 H   0  0  0  0  0  0
   -0.2900   -0.2057   -0.9700 H   0  0  0  0  0  0
    0.1129   -2.3320   -0.0668 H   0  0  0  0  0  0
    0.8915   -6.8952   -0.0092 H   0  0  0  0  0  0
    5.0541   -2.8880    0.0954 H   0  0  0  0  0  0
    5.9578    0.6064    0.1215 H   0  0  0  0  0  0
    6.1201   -1.1103    0.1240 H   0  0  0  0  0  0
    4.9602    0.5421   -2.2125 H   0  0  0  0  0  0
    6.6562    0.1035   -2.0845 H   0  0  0  0  0  0
    4.7460   -0.7156   -4.2181 H   0  0  0  0  0  0
    6.4695   -1.0479   -4.1542 H   0  0  0  0  0  0
    4.3075   -3.2536   -4.1202 H   0  0  0  0  0  0
    5.0805   -2.6537   -5.5411 H   0  0  0  0  0  0
    8.6808   -4.6301   -3.7555 H   0  0  0  0  0  0
    9.2874   -5.8562   -1.6939 H   0  0  0  0  0  0
    4.6487   -4.1901   -2.2925 H   0  0  0  0  0  0
    5.2716   -6.3338    0.5400 H   0  0  0  0  0  0
  1  2  1  0  0  0
  1 28  1  0  0  0
  1 29  1  0  0  0
  1 30  1  0  0  0
  2  3  1  0  0  0
  3  4  2  0  0  0
  3 12  1  0  0  0
  4  5  1  0  0  0
  4 31  1  0  0  0
  5  6  2  0  0  0
  5 10  1  0  0  0
  6  7  1  0  0  0
  7  8  2  0  0  0
  7 32  1  0  0  0
  8  9  1  0  0  0
  9 10  2  0  0  0
  9 27  1  0  0  0
 10 11  1  0  0  0
 11 12  2  0  0  0
 11 33  1  0  0  0
 12 13  1  0  0  0
 13 14  1  0  0  0
 14 15  1  0  0  0
 14 34  1  0  0  0
 14 35  1  0  0  0
 15 16  1  0  0  0
 15 36  1  0  0  0
 15 37  1  0  0  0
 16 17  1  0  0  0
 17 18  1  0  0  0
 17 38  1  0  0  0
 17 39  1  0  0  0
 18 19  1  0  0  0
 18 40  1  0  0  0
 18 41  1  0  0  0
 19 20  1  0  0  0
 20 21  2  0  0  0
 20 26  1  0  0  0
 21 22  1  0  0  0
 21 42  1  0  0  0
 22 23  2  0  0  0
 22 43  1  0  0  0
 23 24  1  0  0  0
 23 25  1  0  0  0
 25 26  2  0  0  0
 25 27  1  0  0  0
 26 44  1  0  0  0
 27 45  1  0  0  0
M  END
> <i_epik_Tot_Q>
0

> <i_epik_Tot_abs_Q>
0

> <i_f3d_flags>
0

> <i_lp_mmshare_version>
64135

> <i_m_source_file_index>
1

> <b_lp_Chiralities_Consistent>
1

> <r_epik_Charging_Adjusted_Penalty>
0

> <r_epik_Ionization_Penalty>
0.0010911

> <r_epik_Ionization_Penalty_Charging>
0

> <r_epik_Ionization_Penalty_Neutral>
0.0010911

> <r_epik_State_Penalty>
-0

> <r_lp_Energy>
33.7813

> <r_lp_tautomer_probability>
1

> <s_epik_cmdline>
J2VwaWtfcHl0aG9uJywgJy1waCcsICc3LjAnLCAnLXRuJywgJzgnLCAnLW1hJywgJzIwMCcsICctaW1hZScsICc8aW5maWxlLm1hZT4nLCAnLW9tYWUnLCAnPG91dGZpbGUubWFlPic=

> <s_epik_input>
W0NIM11PYyhbY0hdMSljKFtjSF0yKU9bQ0gyXVtDSDJdT1tDSDJdW0NIMl1PYyhbY0hdMylbY0hdW2NIXWMoQ2wpYzNbTkhdYyhjMmMxNCluW2NIXW40

> <s_lp_Force_Field>
OPLS_2005

> <s_lp_Variant>
MCD00042-1

> <s_m_source_file>
MCD00042.smi

$$$$
MCD00043
                    3D
 Schrodinger Suite 2023-4.
 45 48  0  0  1  0            999 V2000
    0.1236    0.2042   -0.0430 C   0  0  0  0  0  0
    1.5263   -0.0170   -0.0241 O   0  0  0  0  0  0
    1.9860   -1.3182    0.0020 C   0  0  0  0  0  0
    1.1401   -2.4479   -0.0147 C   0  0  0  0  0  0
    1.6469   -3.7596    0.0090 C   0  0  0  0  0  0
    0.8567   -4.8546   -0.0371 N   0  0  0  0  0  0
    1.4332   -6.0509   -0.0494 C   0  0  0  0  0  0
    2.7381   -6.2938   -0.0013 N   0  0  0  0  0  0
    3.5883   -5.2483    0.0922 C   0  0  0  0  0  0
    3.0616   -3.9224    0.0666 C   0  0  0  0  0  0
    3.9354   -2.8088    0.0757 C   0  0  0  0  0  0
    3.3810   -1.5045    0.0490 C   0  0  0  0  0  0
    4.1465   -0.3557    0.0335 O   0  0  0  0  0  0
    5.4836   -0.3839    0.5238 C   0  0  0  0  0  0
    5.5110   -0.2960    2.0569 C   0  0  0  0  0  0
    5.2171   -1.5549    2.6404 O   0  0  0  0  0  0
    5.2471   -1.5101    4.0580 C   0  0  0  0  0  0
    4.9360   -2.8905    4.6559 C   0  0  0  0  0  0
    6.0750   -3.7433    4.5936 O   0  0  0  0  0  0
    6.3860   -4.3863    3.4125 C   0  0  0  0  0  0
    5.4578   -4.6205    2.3664 C   0  0  0  0  0  0
    5.8455   -5.3032    1.1898 C   0  0  0  0  0  0
    7.1706   -5.7630    1.0655 C   0  0  0  0  0  0
    8.0984   -5.5420    2.0983 C   0  0  0  0  0  0
    7.7075   -4.8612    3.2662 C   0  0  0  0  0  0
    8.8671   -4.6060    4.5205 Cl  0  0  0  0  0  0
    4.9501   -5.5795    0.1454 N   0  0  0  0  0  0
   -0.0704    1.2766   -0.0480 H   0  0  0  0  0  0
   -0.3581   -0.2131    0.8423 H   0  0  0  0  0  0
   -0.3350   -0.2176   -0.9383 H   0  0  0  0  0  0
    0.0677   -2.3351   -0.0575 H   0  0  0  0  0  0
    0.7788   -6.9082   -0.1041 H   0  0  0  0  0  0
    5.0006   -2.9640    0.0861 H   0  0  0  0  0  0
    6.0908   -1.2023    0.1411 H   0  0  0  0  0  0
    5.9558    0.5169    0.1317 H   0  0  0  0  0  0
    6.5075    0.0140    2.3752 H   0  0  0  0  0  0
    4.8098    0.4652    2.4021 H   0  0  0  0  0  0
    6.2164   -1.1584    4.4151 H   0  0  0  0  0  0
    4.4976   -0.7960    4.4024 H   0  0  0  0  0  0
    4.7315   -2.7544    5.7179 H   0  0  0  0  0  0
    4.0242   -3.3271    4.2521 H   0  0  0  0  0  0
    4.4353   -4.2957    2.4588 H   0  0  0  0  0  0
    7.4814   -6.2924    0.1765 H   0  0  0  0  0  0
    9.1123   -5.8995    1.9947 H   0  0  0  0  0  0
    5.1895   -6.4233   -0.3549 H   0  0  0  0  0  0
  1  2  1  0  0  0
  1 28  1  0  0  0
  1 29  1  0  0  0
  1 30  1  0  0  0
  2  3  1  0  0  0
  3  4  2  0  0  0
  3 12  1  0  0  0
  4  5  1  0  0  0
  4 31  1  0  0  0
  5  6  2  0  0  0
  5 10  1  0  0  0
  6  7  1  0  0  0
  7  8  2  0  0  0
  7 32  1  0  0  0
  8  9  1  0  0  0
  9 10  2  0  0  0
  9 27  1  0  0  0
 10 11  1  0  0  0
 11 12  2  0  0  0
 11 33  1  0  0  0
 12 13  1  0  0  0
 13 14  1  0  0  0
 14 15  1  0  0  0
 14 34  1  0  0  0
 14 35  1  0  0  0
 15 16  1  0  0  0
 15 36  1  0  0  0
 15 37  1  0  0  0
 16 17  1  0  0  0
 17 18  1  0  0  0
 17 38  1  0  0  0
 17 39  1  0  0  0
 18 19  1  0  0  0
 18 40  1  0  0  0
 18 41  1  0  0  0
 19 20  1  0  0  0
 20 21  2  0  0  0
 20 25  1  0  0  0
 21 22  1  0  0  0
 21 42  1  0  0  0
 22 23  2  0  0  0
 22 27  1  0  0  0
 23 24  1  0  0  0
 23 43  1  0  0  0
 24 25  2  0  0  0
 24 44  1  0  0  0
 25 26  1  0  0  0
 27 45  1  0  0  0
M  END
> <i_epik_Tot_Q>
0

> <i_epik_Tot_abs_Q>
0

> <i_f3d_flags>
0

> <i_lp_mmshare_version>
64135

> <i_m_source_file_index>
1

> <b_lp_Chiralities_Consistent>
1

> <r_epik_Charging_Adjusted_Penalty>
0

> <r_epik_Ionization_Penalty>
0.0010867

> <r_epik_Ionization_Penalty_Charging>
0

> <r_epik_Ionization_Penalty_Neutral>
0.0010867

> <r_epik_State_Penalty>
-0

> <r_lp_Energy>
33.0623

> <r_lp_tautomer_probability>
1

> <s_epik_cmdline>
J2VwaWtfcHl0aG9uJywgJy1waCcsICc3LjAnLCAnLXRuJywgJzgnLCAnLW1hJywgJzIwMCcsICctaW1hZScsICc8aW5maWxlLm1hZT4nLCAnLW9tYWUnLCAnPG91dGZpbGUubWFlPic=

> <s_epik_input>
W0NIM11PYyhbY0hdMSljKFtjSF0yKU9bQ0gyXVtDSDJdT1tDSDJdW0NIMl1PYyhjKENsKVtjSF1bY0hdMylbY0hdYzNbTkhdYyhjMmMxNCluW2NIXW40

> <s_lp_Force_Field>
OPLS_2005

> <s_lp_Variant>
MCD00043-1

> <s_m_source_file>
MCD00043.smi

$$$$
MCD00044
                    3D
 Schrodinger Suite 2023-4.
 45 48  0  0  1  0            999 V2000
    0.2591    0.1924   -0.2755 C   0  0  0  0  0  0
    1.6349   -0.0221    0.0026 O   0  0  0  0  0  0
    2.0997   -1.3206    0.0382 C   0  0  0  0  0  0
    1.2868   -2.4574   -0.1660 C   0  0  0  0  0  0
    1.8098   -3.7648   -0.1298 C   0  0  0  0  0  0
    1.0588   -4.8680   -0.3430 N   0  0  0  0  0  0
    1.6543   -6.0553   -0.3096 C   0  0  0  0  0  0
    2.9437   -6.2819   -0.0829 N   0  0  0  0  0  0
    3.7564   -5.2258    0.1506 C   0  0  0  0  0  0
    3.2030   -3.9146    0.1345 C   0  0  0  0  0  0
    4.0409   -2.7965    0.3614 C   0  0  0  0  0  0
    3.4710   -1.5097    0.2934 C   0  0  0  0  0  0
    4.2722   -0.4174    0.5027 O   0  0  0  0  0  0
    4.8417    0.1295   -0.6807 C   0  0  0  0  0  0
    6.3399   -0.1957   -0.7462 C   0  0  0  0  0  0
    6.5267   -1.5157   -1.2290 O   0  0  0  0  0  0
    7.8780   -1.9411   -1.1510 C   0  0  0  0  0  0
    7.9782   -3.3854   -1.6497 C   0  0  0  0  0  0
    7.2357   -4.2015   -0.7570 O   0  0  0  0  0  0
    7.0428   -5.5261   -1.0867 C   0  0  0  0  0  0
    7.8742   -6.2350   -1.9882 C   0  0  0  0  0  0
    7.6254   -7.5917   -2.2693 C   0  0  0  0  0  0
    6.5489   -8.2542   -1.6516 C   0  0  0  0  0  0
    6.2512   -9.9198   -1.9891 Cl  0  0  0  0  0  0
    5.7142   -7.5565   -0.7590 C   0  0  0  0  0  0
    5.9521   -6.1923   -0.4820 C   0  0  0  0  0  0
    5.1214   -5.4583    0.3753 N   0  0  0  0  0  0
    0.0552    1.2630   -0.2756 H   0  0  0  0  0  0
   -0.3773   -0.2641    0.4838 H   0  0  0  0  0  0
   -0.0143   -0.1950   -1.2579 H   0  0  0  0  0  0
    0.2316   -2.3533   -0.3665 H   0  0  0  0  0  0
    1.0314   -6.9190   -0.4883 H   0  0  0  0  0  0
    5.0961   -2.8990    0.5667 H   0  0  0  0  0  0
    4.3299   -0.1895   -1.5911 H   0  0  0  0  0  0
    4.7152    1.2105   -0.6203 H   0  0  0  0  0  0
    6.8368    0.4959   -1.4279 H   0  0  0  0  0  0
    6.7926   -0.0639    0.2378 H   0  0  0  0  0  0
    8.5048   -1.2919   -1.7640 H   0  0  0  0  0  0
    8.2413   -1.8765   -0.1240 H   0  0  0  0  0  0
    7.5901   -3.4648   -2.6665 H   0  0  0  0  0  0
    9.0250   -3.6909   -1.6569 H   0  0  0  0  0  0
    8.7146   -5.7592   -2.4698 H   0  0  0  0  0  0
    8.2661   -8.1244   -2.9565 H   0  0  0  0  0  0
    4.8930   -8.0766   -0.2887 H   0  0  0  0  0  0
    5.5867   -4.6133    0.6742 H   0  0  0  0  0  0
  1  2  1  0  0  0
  1 28  1  0  0  0
  1 29  1  0  0  0
  1 30  1  0  0  0
  2  3  1  0  0  0
  3  4  2  0  0  0
  3 12  1  0  0  0
  4  5  1  0  0  0
  4 31  1  0  0  0
  5  6  2  0  0  0
  5 10  1  0  0  0
  6  7  1  0  0  0
  7  8  2  0  0  0
  7 32  1  0  0  0
  8  9  1  0  0  0
  9 10  2  0  0  0
  9 27  1  0  0  0
 10 11  1  0  0  0
 11 12  2  0  0  0
 11 33  1  0  0  0
 12 13  1  0  0  0
 13 14  1  0  0  0
 14 15  1  0  0  0
 14 34  1  0  0  0
 14 35  1  0  0  0
 15 16  1  0  0  0
 15 36  1  0  0  0
 15 37  1  0  0  0
 16 17  1  0  0  0
 17 18  1  0  0  0
 17 38  1  0  0  0
 17 39  1  0  0  0
 18 19  1  0  0  0
 18 40  1  0  0  0
 18 41  1  0  0  0
 19 20  1  0  0  0
 20 21  2  0  0  0
 20 26  1  0  0  0
 21 22  1  0  0  0
 21 42  1  0  0  0
 22 23  2  0  0  0
 22 43  1  0  0  0
 23 24  1  0  0  0
 23 25  1  0  0  0
 25 26  2  0  0  0
 25 44  1  0  0  0
 26 27  1  0  0  0
 27 45  1  0  0  0
M  END
> <i_epik_Tot_Q>
0

> <i_epik_Tot_abs_Q>
0

> <i_f3d_flags>
0

> <i_lp_mmshare_version>
64135

> <i_m_source_file_index>
1

> <b_lp_Chiralities_Consistent>
1

> <r_epik_Charging_Adjusted_Penalty>
0

> <r_epik_Ionization_Penalty>
0.0010911

> <r_epik_Ionization_Penalty_Charging>
0

> <r_epik_Ionization_Penalty_Neutral>
0.0010911

> <r_epik_State_Penalty>
-0

> <r_lp_Energy>
36.7346

> <r_lp_tautomer_probability>
1

> <s_epik_cmdline>
J2VwaWtfcHl0aG9uJywgJy1waCcsICc3LjAnLCAnLXRuJywgJzgnLCAnLW1hJywgJzIwMCcsICctaW1hZScsICc8aW5maWxlLm1hZT4nLCAnLW9tYWUnLCAnPG91dGZpbGUubWFlPic=

> <s_epik_input>
W0NIM11PYyhbY0hdMSljKFtjSF0yKU9bQ0gyXVtDSDJdT1tDSDJdW0NIMl1PYyhbY0hdW2NIXWMoQ2wpW2NIXTMpYzNbTkhdYyhjMmMxNCluW2NIXW40

> <s_lp_Force_Field>
OPLS_2005

> <s_lp_Variant>
MCD00044-1

> <s_m_source_file>
MCD00044.smi

$$$$
MCD00045
                    3D
 Schrodinger Suite 2023-4.
 50 53  0  0  1  0            999 V2000
    0.1206    0.1608    0.2821 C   0  0  0  0  0  0
    1.5118   -0.0105    0.0566 O   0  0  0  0  0  0
    2.0123   -1.2951    0.0031 C   0  0  0  0  0  0
    1.2173   -2.4583    0.1301 C   0  0  0  0  0  0
    1.7714   -3.7538    0.0748 C   0  0  0  0  0  0
    1.0469   -4.8862    0.2165 N   0  0  0  0  0  0
    1.6817   -6.0544    0.1702 C   0  0  0  0  0  0
    2.9879   -6.2365   -0.0023 N   0  0  0  0  0  0
    3.7751   -5.1478   -0.1601 C   0  0  0  0  0  0
    3.1762   -3.8592   -0.1308 C   0  0  0  0  0  0
    3.9922   -2.7188   -0.2870 C   0  0  0  0  0  0
    3.3996   -1.4475   -0.1965 C   0  0  0  0  0  0
    4.2246   -0.3581   -0.3107 O   0  0  0  0  0  0
    4.4811    0.3038    0.9204 C   0  0  0  0  0  0
    5.9117    0.8695    0.9448 C   0  0  0  0  0  0
    7.0255   -0.1923    1.0483 C   0  0  0  0  0  0
    7.4089   -0.8366   -0.2968 C   0  0  0  0  0  0
    8.6106   -1.7979   -0.2299 C   0  0  0  0  0  0
    8.4567   -3.0098    0.7068 C   0  0  0  0  0  0
    7.3733   -3.8433    0.3056 O   0  0  0  0  0  0
    7.1639   -5.0266    0.9944 C   0  0  0  0  0  0
    8.0256   -5.4953    2.0206 C   0  0  0  0  0  0
    7.7634   -6.7087    2.6832 C   0  0  0  0  0  0
    6.6375   -7.4728    2.3339 C   0  0  0  0  0  0
    5.7702   -7.0190    1.3249 C   0  0  0  0  0  0
    6.0229   -5.7989    0.6581 C   0  0  0  0  0  0
    5.1566   -5.3219   -0.3347 N   0  0  0  0  0  0
   -0.1105    1.2255    0.3067 H   0  0  0  0  0  0
   -0.1829   -0.2642    1.2397 H   0  0  0  0  0  0
   -0.4718   -0.2869   -0.5169 H   0  0  0  0  0  0
    0.1518   -2.3853    0.2845 H   0  0  0  0  0  0
    1.0780   -6.9421    0.2877 H   0  0  0  0  0  0
    5.0537   -2.8034   -0.4415 H   0  0  0  0  0  0
    3.7657    1.1199    1.0254 H   0  0  0  0  0  0
    4.3333   -0.3563    1.7778 H   0  0  0  0  0  0
    6.0786    1.5167    0.0833 H   0  0  0  0  0  0
    5.9897    1.5168    1.8189 H   0  0  0  0  0  0
    7.9153    0.2854    1.4598 H   0  0  0  0  0  0
    6.7329   -0.9559    1.7693 H   0  0  0  0  0  0
    6.5590   -1.3538   -0.7292 H   0  0  0  0  0  0
    7.6521   -0.0435   -1.0046 H   0  0  0  0  0  0
    8.8239   -2.1600   -1.2361 H   0  0  0  0  0  0
    9.4928   -1.2340    0.0746 H   0  0  0  0  0  0
    9.3887   -3.5752    0.6649 H   0  0  0  0  0  0
    8.3189   -2.6816    1.7375 H   0  0  0  0  0  0
    8.9014   -4.9430    2.3235 H   0  0  0  0  0  0
    8.4293   -7.0539    3.4603 H   0  0  0  0  0  0
    6.4375   -8.4058    2.8399 H   0  0  0  0  0  0
    4.9137   -7.6231    1.0678 H   0  0  0  0  0  0
    5.5692   -4.5095   -0.7698 H   0  0  0  0  0  0
  1  2  1  0  0  0
  1 28  1  0  0  0
  1 29  1  0  0  0
  1 30  1  0  0  0
  2  3  1  0  0  0
  3  4  2  0  0  0
  3 12  1  0  0  0
  4  5  1  0  0  0
  4 31  1  0  0  0
  5  6  2  0  0  0
  5 10  1  0  0  0
  6  7  1  0  0  0
  7  8  2  0  0  0
  7 32  1  0  0  0
  8  9  1  0  0  0
  9 10  2  0  0  0
  9 27  1  0  0  0
 10 11  1  0  0  0
 11 12  2  0  0  0
 11 33  1  0  0  0
 12 13  1  0  0  0
 13 14  1  0  0  0
 14 15  1  0  0  0
 14 34  1  0  0  0
 14 35  1  0  0  0
 15 16  1  0  0  0
 15 36  1  0  0  0
 15 37  1  0  0  0
 16 17  1  0  0  0
 16 38  1  0  0  0
 16 39  1  0  0  0
 17 18  1  0  0  0
 17 40  1  0  0  0
 17 41  1  0  0  0
 18 19  1  0  0  0
 18 42  1  0  0  0
 18 43  1  0  0  0
 19 20  1  0  0  0
 19 44  1  0  0  0
 19 45  1  0  0  0
 20 21  1  0  0  0
 21 22  2  0  0  0
 21 26  1  0  0  0
 22 23  1  0  0  0
 22 46  1  0  0  0
 23 24  2  0  0  0
 23 47  1  0  0  0
 24 25  1  0  0  0
 24 48  1  0  0  0
 25 26  2  0  0  0
 25 49  1  0  0  0
 26 27  1  0  0  0
 27 50  1  0  0  0
M  END
> <i_epik_Tot_Q>
0

> <i_epik_Tot_abs_Q>
0

> <i_f3d_flags>
0

> <i_lp_mmshare_version>
64135

> <i_m_source_file_index>
1

> <b_lp_Chiralities_Consistent>
1

> <r_epik_Charging_Adjusted_Penalty>
0

> <r_epik_Ionization_Penalty>
0.00137457

> <r_epik_Ionization_Penalty_Charging>
0

> <r_epik_Ionization_Penalty_Neutral>
0.00137457

> <r_epik_State_Penalty>
-0

> <r_lp_Energy>
41.0502

> <r_lp_tautomer_probability>
1

> <s_epik_cmdline>
J2VwaWtfcHl0aG9uJywgJy1waCcsICc3LjAnLCAnLXRuJywgJzgnLCAnLW1hJywgJzIwMCcsICctaW1hZScsICc8aW5maWxlLm1hZT4nLCAnLW9tYWUnLCAnPG91dGZpbGUubWFlPic=

> <s_epik_input>
W0NIM11PYyhbY0hdMSljKFtjSF0yKU9bQ0gyXVtDSDJdW0NIMl1bQ0gyXVtDSDJdW0NIMl1PYyhbY0hdW2NIXVtjSF1bY0hdMyljM1tOSF1jKGMyYzE0KW5bY0hdbjQ=

> <s_lp_Force_Field>
OPLS_2005

> <s_lp_Variant>
MCD00045-1

> <s_m_source_file>
MCD00045.smi

$$$$
MCD00046
                    3D
 Schrodinger Suite 2023-4.
 43 45  0  0  1  0            999 V2000
   -1.6097    3.1999    0.6264 O   0  0  0  0  0  0
   -1.2245    2.0594    0.8757 C   0  0  0  0  0  0
   -0.3862    1.4062    0.0459 N   0  0  0  0  0  0
   -0.0219   -0.0157    0.0254 C   0  0  2  0  0  0
    1.5026   -0.1779    0.0816 C   0  0  0  0  0  0
    1.9557   -1.0106    0.8971 O   0  0  0  0  0  0
    2.1894    0.5187   -0.6990 O   0  5  0  0  0  0
   -0.5912   -0.6782   -1.2464 C   0  0  0  0  0  0
   -2.1006   -0.5976   -1.3635 C   0  0  0  0  0  0
   -2.9304   -1.3489   -0.5104 C   0  0  0  0  0  0
   -4.3239   -1.1829   -0.6034 C   0  0  0  0  0  0
   -4.8374   -0.2595   -1.5487 C   0  0  0  0  0  0
   -4.0426    0.4274   -2.3972 N   0  0  0  0  0  0
   -2.7073    0.2638   -2.2998 C   0  0  0  0  0  0
   -6.1725    0.0564   -1.6789 O   0  0  0  0  0  0
   -7.0252   -0.1668   -0.5610 C   0  0  0  0  0  0
   -6.6160    0.6779    0.6327 C   0  0  0  0  0  0
   -6.3465    0.1834    1.8509 C   0  0  0  0  0  0
   -5.9082    1.0150    3.0370 C   0  0  0  0  0  0
   -4.9033    0.3576    3.8001 O   0  0  0  0  0  0
   -3.5720    0.5710    3.5110 C   0  0  0  0  0  0
   -2.6512    0.1663    4.4957 C   0  0  0  0  0  0
   -1.2756    0.4004    4.3333 C   0  0  0  0  0  0
   -0.7932    1.0292    3.1714 C   0  0  0  0  0  0
    0.8953    1.4003    3.0951 Cl  0  0  0  0  0  0
   -1.6956    1.3811    2.1337 C   0  0  0  0  0  0
   -3.0827    1.1657    2.3204 C   0  0  0  0  0  0
   -0.0422    1.9365   -0.7413 H   0  0  0  0  0  0
   -0.4401   -0.5338    0.8888 H   0  0  0  0  0  0
   -0.1436   -0.2298   -2.1351 H   0  0  0  0  0  0
   -0.3100   -1.7322   -1.2700 H   0  0  0  0  0  0
   -2.5071   -2.0213    0.2215 H   0  0  0  0  0  0
   -4.9637   -1.7409    0.0623 H   0  0  0  0  0  0
   -2.1069    0.8588   -2.9719 H   0  0  0  0  0  0
   -8.0335    0.1295   -0.8499 H   0  0  0  0  0  0
   -7.0817   -1.2259   -0.3070 H   0  0  0  0  0  0
   -6.5224    1.7393    0.4543 H   0  0  0  0  0  0
   -6.4490   -0.8772    2.0286 H   0  0  0  0  0  0
   -5.6178    2.0241    2.7405 H   0  0  0  0  0  0
   -6.7745    1.1312    3.6882 H   0  0  0  0  0  0
   -3.0067   -0.2980    5.4038 H   0  0  0  0  0  0
   -0.5893    0.1202    5.1189 H   0  0  0  0  0  0
   -3.7633    1.4650    1.5368 H   0  0  0  0  0  0
  1  2  2  0  0  0
  2  3  1  0  0  0
  2 26  1  0  0  0
  3  4  1  0  0  0
  3 28  1  0  0  0
  4  5  1  0  0  0
  4  8  1  0  0  0
  4 29  1  0  0  0
  5  6  2  0  0  0
  5  7  1  0  0  0
  8  9  1  0  0  0
  8 30  1  0  0  0
  8 31  1  0  0  0
  9 10  2  0  0  0
  9 14  1  0  0  0
 10 11  1  0  0  0
 10 32  1  0  0  0
 11 12  2  0  0  0
 11 33  1  0  0  0
 12 13  1  0  0  0
 12 15  1  0  0  0
 13 14  2  0  0  0
 14 34  1  0  0  0
 15 16  1  0  0  0
 16 17  1  0  0  0
 16 35  1  0  0  0
 16 36  1  0  0  0
 17 18  2  0  0  0
 17 37  1  0  0  0
 18 19  1  0  0  0
 18 38  1  0  0  0
 19 20  1  0  0  0
 19 39  1  0  0  0
 19 40  1  0  0  0
 20 21  1  0  0  0
 21 22  1  0  0  0
 21 27  2  0  0  0
 22 23  2  0  0  0
 22 41  1  0  0  0
 23 24  1  0  0  0
 23 42  1  0  0  0
 24 25  1  0  0  0
 24 26  2  0  0  0
 26 27  1  0  0  0
 27 43  1  0  0  0
M  CHG  1   7  -1
M  END
> <i_epik_Tot_Q>
-1

> <i_epik_Tot_abs_Q>
1

> <i_f3d_flags>
0

> <i_lp_mmshare_version>
64135

> <i_m_source_file_index>
1

> <b_lp_Chiralities_Consistent>
1

> <r_epik_Charging_Adjusted_Penalty>
0.000187472

> <r_epik_Ionization_Penalty>
0.000233469

> <r_epik_Ionization_Penalty_Charging>
0.000187472

> <r_epik_Ionization_Penalty_Neutral>
4.59974e-05

> <r_epik_State_Penalty>
-0

> <r_lp_Energy>
22.3641

> <r_lp_tautomer_probability>
1

> <s_epik_cmdline>
J2VwaWtfcHl0aG9uJywgJy1waCcsICc3LjAnLCAnLXRuJywgJzgnLCAnLW1hJywgJzIwMCcsICctaW1hZScsICc8aW5maWxlLm1hZT4nLCAnLW9tYWUnLCAnPG91dGZpbGUubWFlPic=

> <s_epik_input>
Tz1DKFtPSF0pW0NASF0oW0NIMl0xKVtOSF1DKD1PKWMoW2NIXTIpYyhDbClbY0hdW2NIXWMyT1tDSDJdXFtDSF09W0NIXVxbQ0gyXU9jKFtjSF1bY0hdYzEzKW5bY0hdMw==

> <s_lp_Force_Field>
OPLS_2005

> <s_lp_Variant>
MCD00046-1

> <s_m_source_file>
MCD00046.smi

$$$$
MCD00047
                    3D
 Schrodinger Suite 2023-4.
 45 47  0  0  1  0            999 V2000
   -1.0525    3.3775    0.9645 O   0  0  0  0  0  0
   -1.0221    2.1520    1.0555 C   0  0  0  0  0  0
   -0.6233    1.3772    0.0308 N   0  0  0  0  0  0
   -0.3448   -0.0608    0.0317 C   0  0  2  0  0  0
    1.1585   -0.2779    0.2554 C   0  0  0  0  0  0
    1.4889   -0.9502    1.2564 O   0  0  0  0  0  0
    1.9514    0.2336   -0.5669 O   0  5  0  0  0  0
   -0.7403   -0.6400   -1.3470 C   0  0  0  0  0  0
   -2.2389   -0.6002   -1.5763 C   0  0  0  0  0  0
   -2.8274    0.3348   -2.4531 C   0  0  0  0  0  0
   -4.2324    0.4377   -2.4907 C   0  0  0  0  0  0
   -4.9893   -0.3891   -1.6357 C   0  0  0  0  0  0
   -4.4286   -1.3497   -0.8627 N   0  0  0  0  0  0
   -3.0858   -1.4480   -0.8374 C   0  0  0  0  0  0
   -6.3388   -0.1453   -1.4799 O   0  0  0  0  0  0
   -6.8545   -0.2466   -0.1475 C   0  0  0  0  0  0
   -6.2893    0.8930    0.7354 C   0  0  0  0  0  0
   -6.1624    0.5679    2.2339 C   0  0  0  0  0  0
   -5.2236   -0.6179    2.5421 C   0  0  0  0  0  0
   -4.4287   -0.3858    3.7001 O   0  0  0  0  0  0
   -3.2130    0.2584    3.5667 C   0  0  0  0  0  0
   -2.4078    0.3285    4.7203 C   0  0  0  0  0  0
   -1.1524    0.9627    4.6877 C   0  0  0  0  0  0
   -0.6804    1.5476    3.4978 C   0  0  0  0  0  0
    0.8698    2.3170    3.5101 Cl  0  0  0  0  0  0
   -1.4728    1.4896    2.3265 C   0  0  0  0  0  0
   -2.7315    0.8463    2.3680 C   0  0  0  0  0  0
   -0.3603    1.8601   -0.8157 H   0  0  0  0  0  0
   -0.8971   -0.5818    0.8144 H   0  0  0  0  0  0
   -0.2362   -0.1056   -2.1543 H   0  0  0  0  0  0
   -0.4193   -1.6804   -1.4227 H   0  0  0  0  0  0
   -2.2161    1.0035   -3.0411 H   0  0  0  0  0  0
   -4.7123    1.1920   -3.0965 H   0  0  0  0  0  0
   -2.6762   -2.1797   -0.1565 H   0  0  0  0  0  0
   -7.9403   -0.1616   -0.1919 H   0  0  0  0  0  0
   -6.6646   -1.2331    0.2764 H   0  0  0  0  0  0
   -5.3021    1.1936    0.3874 H   0  0  0  0  0  0
   -6.9107    1.7794    0.6051 H   0  0  0  0  0  0
   -5.7844    1.4603    2.7341 H   0  0  0  0  0  0
   -7.1460    0.3820    2.6662 H   0  0  0  0  0  0
   -5.8302   -1.5037    2.7312 H   0  0  0  0  0  0
   -4.5972   -0.8907    1.6970 H   0  0  0  0  0  0
   -2.7559   -0.1130    5.6425 H   0  0  0  0  0  0
   -0.5500    1.0023    5.5834 H   0  0  0  0  0  0
   -3.3197    0.8317    1.4642 H   0  0  0  0  0  0
  1  2  2  0  0  0
  2  3  1  0  0  0
  2 26  1  0  0  0
  3  4  1  0  0  0
  3 28  1  0  0  0
  4  5  1  0  0  0
  4  8  1  0  0  0
  4 29  1  0  0  0
  5  6  2  0  0  0
  5  7  1  0  0  0
  8  9  1  0  0  0
  8 30  1  0  0  0
  8 31  1  0  0  0
  9 10  2  0  0  0
  9 14  1  0  0  0
 10 11  1  0  0  0
 10 32  1  0  0  0
 11 12  2  0  0  0
 11 33  1  0  0  0
 12 13  1  0  0  0
 12 15  1  0  0  0
 13 14  2  0  0  0
 14 34  1  0  0  0
 15 16  1  0  0  0
 16 17  1  0  0  0
 16 35  1  0  0  0
 16 36  1  0  0  0
 17 18  1  0  0  0
 17 37  1  0  0  0
 17 38  1  0  0  0
 18 19  1  0  0  0
 18 39  1  0  0  0
 18 40  1  0  0  0
 19 20  1  0  0  0
 19 41  1  0  0  0
 19 42  1  0  0  0
 20 21  1  0  0  0
 21 22  1  0  0  0
 21 27  2  0  0  0
 22 23  2  0  0  0
 22 43  1  0  0  0
 23 24  1  0  0  0
 23 44  1  0  0  0
 24 25  1  0  0  0
 24 26  2  0  0  0
 26 27  1  0  0  0
 27 45  1  0  0  0
M  CHG  1   7  -1
M  END
> <i_epik_Tot_Q>
-1

> <i_epik_Tot_abs_Q>
1

> <i_f3d_flags>
0

> <i_lp_mmshare_version>
64135

> <i_m_source_file_index>
1

> <b_lp_Chiralities_Consistent>
1

> <r_epik_Charging_Adjusted_Penalty>
0.000176194

> <r_epik_Ionization_Penalty>
0.000299048

> <r_epik_Ionization_Penalty_Charging>
0.000176194

> <r_epik_Ionization_Penalty_Neutral>
0.000122854

> <r_epik_State_Penalty>
-0

> <r_lp_Energy>
27.1529

> <r_lp_tautomer_probability>
1

> <s_epik_cmdline>
J2VwaWtfcHl0aG9uJywgJy1waCcsICc3LjAnLCAnLXRuJywgJzgnLCAnLW1hJywgJzIwMCcsICctaW1hZScsICc8aW5maWxlLm1hZT4nLCAnLW9tYWUnLCAnPG91dGZpbGUubWFlPic=

> <s_epik_input>
Tz1DKFtPSF0pW0NASF0oW0NIMl0xKVtOSF1DKD1PKWMoW2NIXTIpYyhDbClbY0hdW2NIXWMyT1tDSDJdW0NIMl1bQ0gyXVtDSDJdT2MoW2NIXVtjSF1jMTMpbltjSF0z

> <s_lp_Force_Field>
OPLS_2005

> <s_lp_Variant>
MCD00047-1

> <s_m_source_file>
MCD00047.smi

$$$$
MCD00048
                    3D
 Schrodinger Suite 2023-4.
 47 49  0  0  1  0            999 V2000
    0.0067   -0.0637   -0.2706 C   0  0  0  0  0  0
    1.5235   -0.0143   -0.1626 C   0  0  0  0  0  0
    2.2490   -1.2224   -0.2312 C   0  0  0  0  0  0
    3.6533   -1.2226   -0.1429 C   0  0  0  0  0  0
    4.3524   -0.0088    0.0316 C   0  0  0  0  0  0
    3.6293    1.1956    0.1168 C   0  0  0  0  0  0
    2.2233    1.2115   -0.0105 C   0  0  0  0  0  0
    1.4991    2.5288    0.0268 C   0  0  0  0  0  0
    0.7911    2.8137    0.9906 O   0  0  0  0  0  0
    1.6395    3.3592   -1.0246 N   0  0  0  0  0  0
    2.3728    3.1349   -2.2734 C   0  0  2  0  0  0
    2.7182    4.4813   -2.9189 C   0  0  0  0  0  0
    3.9288    4.7339   -3.1055 O   0  0  0  0  0  0
    1.7653    5.2358   -3.2159 O   0  5  0  0  0  0
    1.5914    2.1776   -3.2038 C   0  0  0  0  0  0
    2.2998    1.7366   -4.4749 C   0  0  0  0  0  0
    1.6432    1.8451   -5.7176 C   0  0  0  0  0  0
    2.2664    1.3759   -6.8880 C   0  0  0  0  0  0
    3.5491    0.8010   -6.8196 C   0  0  0  0  0  0
    4.2311    0.7061   -5.5896 C   0  0  0  0  0  0
    3.5930    1.1724   -4.4146 C   0  0  0  0  0  0
    5.4852    0.1364   -5.6096 O   0  0  0  0  0  0
    6.4263    0.5267   -4.6155 C   0  0  0  0  0  0
    6.3452   -0.3140   -3.3560 C   0  0  0  0  0  0
    6.5176    0.1848   -2.1212 C   0  0  0  0  0  0
    6.4814   -0.6220   -0.8392 C   0  0  0  0  0  0
    5.7190    0.0454    0.1594 O   0  0  0  0  0  0
   -0.3485    0.5818   -1.0742 H   0  0  0  0  0  0
   -0.4506    0.2641    0.6631 H   0  0  0  0  0  0
   -0.3445   -1.0746   -0.4783 H   0  0  0  0  0  0
    1.7293   -2.1612   -0.3532 H   0  0  0  0  0  0
    4.1802   -2.1637   -0.1849 H   0  0  0  0  0  0
    4.1669    2.1230    0.2545 H   0  0  0  0  0  0
    1.1541    4.2432   -0.9711 H   0  0  0  0  0  0
    3.3271    2.6739   -2.0247 H   0  0  0  0  0  0
    1.3433    1.2617   -2.6713 H   0  0  0  0  0  0
    0.6335    2.6309   -3.4636 H   0  0  0  0  0  0
    0.6534    2.2736   -5.7765 H   0  0  0  0  0  0
    1.7580    1.4513   -7.8378 H   0  0  0  0  0  0
    4.0198    0.4407   -7.7226 H   0  0  0  0  0  0
    4.0762    1.0827   -3.4548 H   0  0  0  0  0  0
    7.4187    0.3794   -5.0413 H   0  0  0  0  0  0
    6.3481    1.5911   -4.3852 H   0  0  0  0  0  0
    6.1722   -1.3715   -3.4916 H   0  0  0  0  0  0
    6.7181    1.2401   -2.0035 H   0  0  0  0  0  0
    6.1462   -1.6417   -1.0284 H   0  0  0  0  0  0
    7.5034   -0.7017   -0.4693 H   0  0  0  0  0  0
  1  2  1  0  0  0
  1 28  1  0  0  0
  1 29  1  0  0  0
  1 30  1  0  0  0
  2  3  2  0  0  0
  2  7  1  0  0  0
  3  4  1  0  0  0
  3 31  1  0  0  0
  4  5  2  0  0  0
  4 32  1  0  0  0
  5  6  1  0  0  0
  5 27  1  0  0  0
  6  7  2  0  0  0
  6 33  1  0  0  0
  7  8  1  0  0  0
  8  9  2  0  0  0
  8 10  1  0  0  0
 10 11  1  0  0  0
 10 34  1  0  0  0
 11 12  1  0  0  0
 11 15  1  0  0  0
 11 35  1  0  0  0
 12 13  2  0  0  0
 12 14  1  0  0  0
 15 16  1  0  0  0
 15 36  1  0  0  0
 15 37  1  0  0  0
 16 17  2  0  0  0
 16 21  1  0  0  0
 17 18  1  0  0  0
 17 38  1  0  0  0
 18 19  2  0  0  0
 18 39  1  0  0  0
 19 20  1  0  0  0
 19 40  1  0  0  0
 20 21  2  0  0  0
 20 22  1  0  0  0
 21 41  1  0  0  0
 22 23  1  0  0  0
 23 24  1  0  0  0
 23 42  1  0  0  0
 23 43  1  0  0  0
 24 25  2  0  0  0
 24 44  1  0  0  0
 25 26  1  0  0  0
 25 45  1  0  0  0
 26 27  1  0  0  0
 26 46  1  0  0  0
 26 47  1  0  0  0
M  CHG  1  14  -1
M  END
> <i_epik_Tot_Q>
-1

> <i_epik_Tot_abs_Q>
1

> <i_f3d_flags>
0

> <i_lp_mmshare_version>
64135

> <i_m_source_file_index>
1

> <b_lp_Chiralities_Consistent>
1

> <r_epik_Charging_Adjusted_Penalty>
0.000248987

> <r_epik_Ionization_Penalty>
0.000249068

> <r_epik_Ionization_Penalty_Charging>
0.000248987

> <r_epik_Ionization_Penalty_Neutral>
8.12683e-08

> <r_epik_State_Penalty>
-0

> <r_lp_Energy>
25.6928

> <r_lp_tautomer_probability>
1

> <s_epik_cmdline>
J2VwaWtfcHl0aG9uJywgJy1waCcsICc3LjAnLCAnLXRuJywgJzgnLCAnLW1hJywgJzIwMCcsICctaW1hZScsICc8aW5maWxlLm1hZT4nLCAnLW9tYWUnLCAnPG91dGZpbGUubWFlPic=

> <s_epik_input>
YzEyW2NIXVtjSF1jKFtDSDNdKWMoW2NIXTEpQyg9TylbTkhdW0NASF0oQyg9TylbT0hdKVtDSDJdYzNbY0hdW2NIXVtjSF1jKFtjSF0zKU9bQ0gyXS9bQ0hdPVtDSF0vW0NIMl1PMg==

> <s_lp_Force_Field>
OPLS_2005

> <s_lp_Variant>
MCD00048-1

> <s_m_source_file>
MCD00048.smi

$$$$
MCD00049
                    3D
 Schrodinger Suite 2023-4.
 49 51  0  0  1  0            999 V2000
   -0.0114   -0.0390   -0.0684 C   0  0  0  0  0  0
    1.5085    0.0090   -0.1085 C   0  0  0  0  0  0
    2.2245   -1.2044   -0.1545 C   0  0  0  0  0  0
    3.6310   -1.2093   -0.1700 C   0  0  0  0  0  0
    4.3518    0.0083   -0.1415 C   0  0  0  0  0  0
    3.6313    1.2192   -0.1175 C   0  0  0  0  0  0
    2.2187    1.2367   -0.0847 C   0  0  0  0  0  0
    1.4931    2.5543   -0.0532 C   0  0  0  0  0  0
    0.8271    2.9069   -1.0247 O   0  0  0  0  0  0
    1.5747    3.3111    1.0573 N   0  0  0  0  0  0
    2.2575    3.0251    2.3202 C   0  0  2  0  0  0
    1.2971    3.2870    3.4863 C   0  0  0  0  0  0
    0.9921    2.3111    4.2063 O   0  0  0  0  0  0
    0.8783    4.4567    3.6359 O   0  5  0  0  0  0
    3.5596    3.8512    2.4052 C   0  0  0  0  0  0
    4.4744    3.5198    3.5731 C   0  0  0  0  0  0
    4.7755    4.4955    4.5444 C   0  0  0  0  0  0
    5.6649    4.1926    5.5917 C   0  0  0  0  0  0
    6.2587    2.9180    5.6665 C   0  0  0  0  0  0
    5.9616    1.9247    4.7107 C   0  0  0  0  0  0
    5.0525    2.2373    3.6680 C   0  0  0  0  0  0
    6.5952    0.7062    4.8579 O   0  0  0  0  0  0
    6.2140   -0.3813    4.0209 C   0  0  0  0  0  0
    6.8721   -0.3078    2.6301 C   0  0  0  0  0  0
    6.3649   -1.4135    1.6893 C   0  0  0  0  0  0
    6.5066   -1.0510    0.1981 C   0  0  0  0  0  0
    5.7293    0.0973   -0.1407 O   0  0  0  0  0  0
   -0.3913    0.5225    0.7861 H   0  0  0  0  0  0
   -0.3745   -1.0632    0.0211 H   0  0  0  0  0  0
   -0.4316    0.3875   -0.9796 H   0  0  0  0  0  0
    1.6948   -2.1457   -0.1718 H   0  0  0  0  0  0
    4.1332   -2.1634   -0.2012 H   0  0  0  0  0  0
    4.1795    2.1492   -0.1179 H   0  0  0  0  0  0
    1.0613    4.1806    1.0434 H   0  0  0  0  0  0
    2.5165    1.9671    2.3654 H   0  0  0  0  0  0
    4.1455    3.7093    1.4979 H   0  0  0  0  0  0
    3.3201    4.9156    2.4258 H   0  0  0  0  0  0
    4.3333    5.4793    4.4854 H   0  0  0  0  0  0
    5.8986    4.9413    6.3342 H   0  0  0  0  0  0
    6.9472    2.6990    6.4693 H   0  0  0  0  0  0
    4.7916    1.5125    2.9130 H   0  0  0  0  0  0
    6.5303   -1.3007    4.5138 H   0  0  0  0  0  0
    5.1271   -0.4472    3.9511 H   0  0  0  0  0  0
    6.6801    0.6646    2.1807 H   0  0  0  0  0  0
    7.9564   -0.3725    2.7254 H   0  0  0  0  0  0
    6.9090   -2.3353    1.8971 H   0  0  0  0  0  0
    5.3215   -1.6347    1.9115 H   0  0  0  0  0  0
    7.5499   -0.8150   -0.0133 H   0  0  0  0  0  0
    6.2653   -1.8969   -0.4454 H   0  0  0  0  0  0
  1  2  1  0  0  0
  1 28  1  0  0  0
  1 29  1  0  0  0
  1 30  1  0  0  0
  2  3  2  0  0  0
  2  7  1  0  0  0
  3  4  1  0  0  0
  3 31  1  0  0  0
  4  5  2  0  0  0
  4 32  1  0  0  0
  5  6  1  0  0  0
  5 27  1  0  0  0
  6  7  2  0  0  0
  6 33  1  0  0  0
  7  8  1  0  0  0
  8  9  2  0  0  0
  8 10  1  0  0  0
 10 11  1  0  0  0
 10 34  1  0  0  0
 11 12  1  0  0  0
 11 15  1  0  0  0
 11 35  1  0  0  0
 12 13  2  0  0  0
 12 14  1  0  0  0
 15 16  1  0  0  0
 15 36  1  0  0  0
 15 37  1  0  0  0
 16 17  2  0  0  0
 16 21  1  0  0  0
 17 18  1  0  0  0
 17 38  1  0  0  0
 18 19  2  0  0  0
 18 39  1  0  0  0
 19 20  1  0  0  0
 19 40  1  0  0  0
 20 21  2  0  0  0
 20 22  1  0  0  0
 21 41  1  0  0  0
 22 23  1  0  0  0
 23 24  1  0  0  0
 23 42  1  0  0  0
 23 43  1  0  0  0
 24 25  1  0  0  0
 24 44  1  0  0  0
 24 45  1  0  0  0
 25 26  1  0  0  0
 25 46  1  0  0  0
 25 47  1  0  0  0
 26 27  1  0  0  0
 26 48  1  0  0  0
 26 49  1  0  0  0
M  CHG  1  14  -1
M  END
> <i_epik_Tot_Q>
-1

> <i_epik_Tot_abs_Q>
1

> <i_f3d_flags>
0

> <i_lp_mmshare_version>
64135

> <i_m_source_file_index>
1

> <b_lp_Chiralities_Consistent>
1

> <r_epik_Charging_Adjusted_Penalty>
0.00028232

> <r_epik_Ionization_Penalty>
0.000282377

> <r_epik_Ionization_Penalty_Charging>
0.00028232

> <r_epik_Ionization_Penalty_Neutral>
5.698e-08

> <r_epik_State_Penalty>
-0

> <r_lp_Energy>
26.9862

> <r_lp_tautomer_probability>
1

> <s_epik_cmdline>
J2VwaWtfcHl0aG9uJywgJy1waCcsICc3LjAnLCAnLXRuJywgJzgnLCAnLW1hJywgJzIwMCcsICctaW1hZScsICc8aW5maWxlLm1hZT4nLCAnLW9tYWUnLCAnPG91dGZpbGUubWFlPic=

> <s_epik_input>
YzEyW2NIXVtjSF1jKFtDSDNdKWMoW2NIXTEpQyg9TylbTkhdW0NASF0oQyg9TylbT0hdKVtDSDJdYzNbY0hdW2NIXVtjSF1jKFtjSF0zKU9bQ0gyXVtDSDJdW0NIMl1bQ0gyXU8y

> <s_lp_Force_Field>
OPLS_2005

> <s_lp_Variant>
MCD00049-1

> <s_m_source_file>
MCD00049.smi

$$$$
MCD00050
                    3D
 Schrodinger Suite 2023-4.
 44 46  0  0  1  0            999 V2000
   -2.1772    2.9047    0.3572 O   0  0  0  0  0  0
   -1.6634    1.7987    0.5133 C   0  0  0  0  0  0
   -0.5177    1.4527   -0.1040 N   0  0  0  0  0  0
    0.1365    0.1422   -0.1296 C   0  0  2  0  0  0
    1.6547    0.3193   -0.2468 C   0  0  0  0  0  0
    2.3609   -0.1493    0.6730 O   0  0  0  0  0  0
    2.0853    0.9238   -1.2541 O   0  5  0  0  0  0
   -0.4930   -0.7723   -1.2099 C   0  0  0  0  0  0
   -0.6478   -2.2281   -0.7989 C   0  0  0  0  0  0
    0.4821   -3.0150   -0.4934 C   0  0  0  0  0  0
    0.3218   -4.3512   -0.0799 C   0  0  0  0  0  0
   -0.9670   -4.9079    0.0309 C   0  0  0  0  0  0
   -2.1050   -4.1298   -0.2809 C   0  0  0  0  0  0
   -1.9352   -2.7975   -0.7061 C   0  0  0  0  0  0
   -3.3843   -4.6281   -0.2061 O   0  0  0  0  0  0
   -3.7531   -5.2519    1.0190 C   0  0  0  0  0  0
   -3.8730   -4.2256    2.1281 C   0  0  0  0  0  0
   -5.0323   -3.8356    2.6849 C   0  0  0  0  0  0
   -5.1875   -2.7592    3.7489 C   0  0  0  0  0  0
   -3.9774   -2.0657    4.0480 O   0  0  0  0  0  0
   -3.4965   -1.1216    3.1615 C   0  0  0  0  0  0
   -2.2938   -0.4778    3.5105 C   0  0  0  0  0  0
   -1.7106    0.4732    2.6534 C   0  0  0  0  0  0
   -2.3148    0.7910    1.4182 C   0  0  0  0  0  0
   -3.5348    0.1650    1.0660 C   0  0  0  0  0  0
   -4.3286    0.5046   -0.4338 Cl  0  0  0  0  0  0
   -4.1170   -0.7811    1.9336 C   0  0  0  0  0  0
   -0.0794    2.1598   -0.6767 H   0  0  0  0  0  0
   -0.0229   -0.3368    0.8354 H   0  0  0  0  0  0
   -1.4794   -0.3962   -1.4847 H   0  0  0  0  0  0
    0.0869   -0.7352   -2.1332 H   0  0  0  0  0  0
    1.4749   -2.5961   -0.5684 H   0  0  0  0  0  0
    1.1896   -4.9502    0.1534 H   0  0  0  0  0  0
   -1.0693   -5.9374    0.3388 H   0  0  0  0  0  0
   -2.8073   -2.2044   -0.9403 H   0  0  0  0  0  0
   -4.7198   -5.7333    0.8680 H   0  0  0  0  0  0
   -3.0621   -6.0413    1.3136 H   0  0  0  0  0  0
   -2.9456   -3.7701    2.4426 H   0  0  0  0  0  0
   -5.9520   -4.2974    2.3568 H   0  0  0  0  0  0
   -5.9798   -2.0631    3.4715 H   0  0  0  0  0  0
   -5.5266   -3.2458    4.6633 H   0  0  0  0  0  0
   -1.8070   -0.7225    4.4431 H   0  0  0  0  0  0
   -0.7840    0.9485    2.9422 H   0  0  0  0  0  0
   -5.0373   -1.2503    1.6227 H   0  0  0  0  0  0
  1  2  2  0  0  0
  2  3  1  0  0  0
  2 24  1  0  0  0
  3  4  1  0  0  0
  3 28  1  0  0  0
  4  5  1  0  0  0
  4  8  1  0  0  0
  4 29  1  0  0  0
  5  6  2  0  0  0
  5  7  1  0  0  0
  8  9  1  0  0  0
  8 30  1  0  0  0
  8 31  1  0  0  0
  9 10  2  0  0  0
  9 14  1  0  0  0
 10 11  1  0  0  0
 10 32  1  0  0  0
 11 12  2  0  0  0
 11 33  1  0  0  0
 12 13  1  0  0  0
 12 34  1  0  0  0
 13 14  2  0  0  0
 13 15  1  0  0  0
 14 35  1  0  0  0
 15 16  1  0  0  0
 16 17  1  0  0  0
 16 36  1  0  0  0
 16 37  1  0  0  0
 17 18  2  0  0  0
 17 38  1  0  0  0
 18 19  1  0  0  0
 18 39  1  0  0  0
 19 20  1  0  0  0
 19 40  1  0  0  0
 19 41  1  0  0  0
 20 21  1  0  0  0
 21 22  2  0  0  0
 21 27  1  0  0  0
 22 23  1  0  0  0
 22 42  1  0  0  0
 23 24  2  0  0  0
 23 43  1  0  0  0
 24 25  1  0  0  0
 25 26  1  0  0  0
 25 27  2  0  0  0
 27 44  1  0  0  0
M  CHG  1   7  -1
M  END
> <i_epik_Tot_Q>
-1

> <i_epik_Tot_abs_Q>
1

> <i_f3d_flags>
0

> <i_lp_mmshare_version>
64135

> <i_m_source_file_index>
1

> <b_lp_Chiralities_Consistent>
1

> <r_epik_Charging_Adjusted_Penalty>
0.00142766

> <r_epik_Ionization_Penalty>
0.000714092

> <r_epik_Ionization_Penalty_Charging>
0.000713829

> <r_epik_Ionization_Penalty_Neutral>
2.63679e-07

> <r_epik_State_Penalty>
0.000713829

> <r_lp_Energy>
27.2935

> <r_lp_tautomer_probability>
1

> <s_epik_cmdline>
J2VwaWtfcHl0aG9uJywgJy1waCcsICc3LjAnLCAnLXRuJywgJzgnLCAnLW1hJywgJzIwMCcsICctaW1hZScsICc8aW5maWxlLm1hZT4nLCAnLW9tYWUnLCAnPG91dGZpbGUubWFlPic=

> <s_epik_input>
Tz1DKFtPSF0pW0NASF0oW0NIMl0xKVtOSF1DKD1PKWMoYyhDbClbY0hdMilbY0hdW2NIXWMyT1tDSDJdXFtDSF09W0NIXVxbQ0gyXU9jKFtjSF0zKVtjSF1bY0hdW2NIXWMxMw==

> <s_lp_Force_Field>
OPLS_2005

> <s_lp_Variant>
MCD00050-1

> <s_m_source_file>
MCD00050.smi

$$$$
MCD00051
                    3D
 Schrodinger Suite 2023-4.
 46 48  0  0  1  0            999 V2000
   -2.2016    2.8851    0.0294 O   0  0  0  0  0  0
   -1.7307    1.7705    0.2460 C   0  0  0  0  0  0
   -0.4774    1.4423   -0.1192 N   0  0  0  0  0  0
    0.1465    0.1184   -0.0973 C   0  0  2  0  0  0
    1.6611    0.2534    0.0899 C   0  0  0  0  0  0
    2.1580   -0.2463    1.1232 O   0  0  0  0  0  0
    2.2974    0.8582   -0.8018 O   0  5  0  0  0  0
   -0.2704   -0.6798   -1.3517 C   0  0  0  0  0  0
    0.0463   -2.1643   -1.3303 C   0  0  0  0  0  0
    0.8916   -2.7261   -2.3076 C   0  0  0  0  0  0
    1.1197   -4.1140   -2.3231 C   0  0  0  0  0  0
    0.4971   -4.9406   -1.3687 C   0  0  0  0  0  0
   -0.3413   -4.3943   -0.3753 C   0  0  0  0  0  0
   -0.5508   -2.9935   -0.3577 C   0  0  0  0  0  0
   -0.9140   -5.2833    0.5098 O   0  0  0  0  0  0
   -1.5857   -4.7982    1.6680 C   0  0  0  0  0  0
   -3.0405   -4.3744    1.3904 C   0  0  0  0  0  0
   -3.8549   -4.2423    2.6882 C   0  0  0  0  0  0
   -5.0991   -3.3428    2.5682 C   0  0  0  0  0  0
   -4.8331   -2.0608    3.1300 O   0  0  0  0  0  0
   -4.0945   -1.1750    2.3824 C   0  0  0  0  0  0
   -3.0350   -0.4994    3.0170 C   0  0  0  0  0  0
   -2.2632    0.4408    2.3105 C   0  0  0  0  0  0
   -2.5533    0.7364    0.9614 C   0  0  0  0  0  0
   -3.6341    0.0772    0.3244 C   0  0  0  0  0  0
   -4.0598    0.4117   -1.3193 Cl  0  0  0  0  0  0
   -4.3906   -0.8793    1.0327 C   0  0  0  0  0  0
    0.0774    2.1692   -0.5478 H   0  0  0  0  0  0
   -0.2132   -0.4180    0.7801 H   0  0  0  0  0  0
   -1.3476   -0.6038   -1.4944 H   0  0  0  0  0  0
    0.1690   -0.2252   -2.2409 H   0  0  0  0  0  0
    1.3561   -2.0988   -3.0543 H   0  0  0  0  0  0
    1.7635   -4.5467   -3.0744 H   0  0  0  0  0  0
    0.6689   -6.0066   -1.3964 H   0  0  0  0  0  0
   -1.1821   -2.5290    0.3822 H   0  0  0  0  0  0
   -1.5920   -5.6248    2.3790 H   0  0  0  0  0  0
   -1.0223   -3.9989    2.1520 H   0  0  0  0  0  0
   -3.0632   -3.4366    0.8402 H   0  0  0  0  0  0
   -3.5229   -5.1090    0.7447 H   0  0  0  0  0  0
   -4.1603   -5.2416    3.0005 H   0  0  0  0  0  0
   -3.2236   -3.8662    3.4947 H   0  0  0  0  0  0
   -5.4824   -3.3048    1.5488 H   0  0  0  0  0  0
   -5.9006   -3.7750    3.1678 H   0  0  0  0  0  0
   -2.8074   -0.7079    4.0521 H   0  0  0  0  0  0
   -1.4491    0.9435    2.8128 H   0  0  0  0  0  0
   -5.2176   -1.3629    0.5354 H   0  0  0  0  0  0
  1  2  2  0  0  0
  2  3  1  0  0  0
  2 24  1  0  0  0
  3  4  1  0  0  0
  3 28  1  0  0  0
  4  5  1  0  0  0
  4  8  1  0  0  0
  4 29  1  0  0  0
  5  6  2  0  0  0
  5  7  1  0  0  0
  8  9  1  0  0  0
  8 30  1  0  0  0
  8 31  1  0  0  0
  9 10  2  0  0  0
  9 14  1  0  0  0
 10 11  1  0  0  0
 10 32  1  0  0  0
 11 12  2  0  0  0
 11 33  1  0  0  0
 12 13  1  0  0  0
 12 34  1  0  0  0
 13 14  2  0  0  0
 13 15  1  0  0  0
 14 35  1  0  0  0
 15 16  1  0  0  0
 16 17  1  0  0  0
 16 36  1  0  0  0
 16 37  1  0  0  0
 17 18  1  0  0  0
 17 38  1  0  0  0
 17 39  1  0  0  0
 18 19  1  0  0  0
 18 40  1  0  0  0
 18 41  1  0  0  0
 19 20  1  0  0  0
 19 42  1  0  0  0
 19 43  1  0  0  0
 20 21  1  0  0  0
 21 22  2  0  0  0
 21 27  1  0  0  0
 22 23  1  0  0  0
 22 44  1  0  0  0
 23 24  2  0  0  0
 23 45  1  0  0  0
 24 25  1  0  0  0
 25 26  1  0  0  0
 25 27  2  0  0  0
 27 46  1  0  0  0
M  CHG  1   7  -1
M  END
> <i_epik_Tot_Q>
-1

> <i_epik_Tot_abs_Q>
1

> <i_f3d_flags>
0

> <i_lp_mmshare_version>
64135

> <i_m_source_file_index>
1

> <b_lp_Chiralities_Consistent>
1

> <r_epik_Charging_Adjusted_Penalty>
0.00162046

> <r_epik_Ionization_Penalty>
0.00081054

> <r_epik_Ionization_Penalty_Charging>
0.00081023

> <r_epik_Ionization_Penalty_Neutral>
3.09777e-07

> <r_epik_State_Penalty>
0.00081023

> <r_lp_Energy>
30.6103

> <r_lp_tautomer_probability>
1

> <s_epik_cmdline>
J2VwaWtfcHl0aG9uJywgJy1waCcsICc3LjAnLCAnLXRuJywgJzgnLCAnLW1hJywgJzIwMCcsICctaW1hZScsICc8aW5maWxlLm1hZT4nLCAnLW9tYWUnLCAnPG91dGZpbGUubWFlPic=

> <s_epik_input>
Tz1DKFtPSF0pW0NASF0oW0NIMl0xKVtOSF1DKD1PKWMoYyhDbClbY0hdMilbY0hdW2NIXWMyT1tDSDJdW0NIMl1bQ0gyXVtDSDJdT2MoW2NIXTMpW2NIXVtjSF1bY0hdYzEz

> <s_lp_Force_Field>
OPLS_2005

> <s_lp_Variant>
MCD00051-1

> <s_m_source_file>
MCD00051.smi

$$$$
MCD00052
                    3D
 Schrodinger Suite 2023-4.
 44 46  0  0  1  0            999 V2000
   -1.1386    3.3720    0.8744 O   0  0  0  0  0  0
   -0.7932    2.2067    1.0591 C   0  0  0  0  0  0
   -0.5003    1.3857    0.0344 N   0  0  0  0  0  0
   -0.1035   -0.0242    0.0707 C   0  0  2  0  0  0
    1.4276   -0.1350    0.0954 C   0  0  0  0  0  0
    1.9293   -0.8077    1.0223 O   0  0  0  0  0  0
    2.0711    0.4516   -0.8037 O   0  5  0  0  0  0
   -0.6229   -0.7098   -1.2161 C   0  0  0  0  0  0
   -2.1348   -0.8334   -1.2372 C   0  0  0  0  0  0
   -2.7562   -1.9314   -0.6117 C   0  0  0  0  0  0
   -4.1551   -1.9630   -0.4699 C   0  0  0  0  0  0
   -4.9448   -0.8809   -0.9317 C   0  0  0  0  0  0
   -4.3254    0.1583   -1.6544 C   0  0  0  0  0  0
   -2.9262    0.1868   -1.8035 C   0  0  0  0  0  0
   -6.2822   -0.7300   -0.6226 O   0  0  0  0  0  0
   -6.7424   -1.2837    0.6159 C   0  0  0  0  0  0
   -5.9062   -0.8589    1.8197 C   0  0  0  0  0  0
   -5.2292    0.2993    1.9189 C   0  0  0  0  0  0
   -4.2079    0.6089    2.9895 C   0  0  0  0  0  0
   -2.9992    1.0246    2.3603 O   0  0  0  0  0  0
   -1.8334    1.1180    3.0962 C   0  0  0  0  0  0
   -1.7281    0.6838    4.4422 C   0  0  0  0  0  0
   -0.5103    0.7874    5.1370 C   0  0  0  0  0  0
    0.6160    1.3384    4.5049 C   0  0  0  0  0  0
    0.5303    1.7932    3.1767 C   0  0  0  0  0  0
    1.9367    2.5109    2.4664 Cl  0  0  0  0  0  0
   -0.6901    1.6766    2.4631 C   0  0  0  0  0  0
   -0.5568    1.7890   -0.8891 H   0  0  0  0  0  0
   -0.5199   -0.5285    0.9444 H   0  0  0  0  0  0
   -0.2947   -0.1692   -2.1057 H   0  0  0  0  0  0
   -0.2027   -1.7134   -1.3020 H   0  0  0  0  0  0
   -2.1578   -2.7233   -0.1854 H   0  0  0  0  0  0
   -4.5985   -2.7889    0.0652 H   0  0  0  0  0  0
   -4.9171    0.9828   -2.0240 H   0  0  0  0  0  0
   -2.4588    1.0285   -2.2931 H   0  0  0  0  0  0
   -7.7741   -0.9736    0.7815 H   0  0  0  0  0  0
   -6.7576   -2.3717    0.5471 H   0  0  0  0  0  0
   -5.7960   -1.6032    2.5947 H   0  0  0  0  0  0
   -5.3262    1.0418    1.1402 H   0  0  0  0  0  0
   -4.5822    1.4021    3.6374 H   0  0  0  0  0  0
   -4.0697   -0.2932    3.5857 H   0  0  0  0  0  0
   -2.5667    0.2635    4.9737 H   0  0  0  0  0  0
   -0.4418    0.4481    6.1600 H   0  0  0  0  0  0
    1.5466    1.4241    5.0461 H   0  0  0  0  0  0
  1  2  2  0  0  0
  2  3  1  0  0  0
  2 27  1  0  0  0
  3  4  1  0  0  0
  3 28  1  0  0  0
  4  5  1  0  0  0
  4  8  1  0  0  0
  4 29  1  0  0  0
  5  6  2  0  0  0
  5  7  1  0  0  0
  8  9  1  0  0  0
  8 30  1  0  0  0
  8 31  1  0  0  0
  9 10  2  0  0  0
  9 14  1  0  0  0
 10 11  1  0  0  0
 10 32  1  0  0  0
 11 12  2  0  0  0
 11 33  1  0  0  0
 12 13  1  0  0  0
 12 15  1  0  0  0
 13 14  2  0  0  0
 13 34  1  0  0  0
 14 35  1  0  0  0
 15 16  1  0  0  0
 16 17  1  0  0  0
 16 36  1  0  0  0
 16 37  1  0  0  0
 17 18  2  0  0  0
 17 38  1  0  0  0
 18 19  1  0  0  0
 18 39  1  0  0  0
 19 20  1  0  0  0
 19 40  1  0  0  0
 19 41  1  0  0  0
 20 21  1  0  0  0
 21 22  2  0  0  0
 21 27  1  0  0  0
 22 23  1  0  0  0
 22 42  1  0  0  0
 23 24  2  0  0  0
 23 43  1  0  0  0
 24 25  1  0  0  0
 24 44  1  0  0  0
 25 26  1  0  0  0
 25 27  2  0  0  0
M  CHG  1   7  -1
M  END
> <i_epik_Tot_Q>
-1

> <i_epik_Tot_abs_Q>
1

> <i_f3d_flags>
0

> <i_lp_mmshare_version>
64135

> <i_m_source_file_index>
1

> <b_lp_Chiralities_Consistent>
1

> <r_epik_Charging_Adjusted_Penalty>
0.000690084

> <r_epik_Ionization_Penalty>
0.000345358

> <r_epik_Ionization_Penalty_Charging>
0.000345042

> <r_epik_Ionization_Penalty_Neutral>
3.16351e-07

> <r_epik_State_Penalty>
0.000345042

> <r_lp_Energy>
32.8782

> <r_lp_tautomer_probability>
1

> <s_epik_cmdline>
J2VwaWtfcHl0aG9uJywgJy1waCcsICc3LjAnLCAnLXRuJywgJzgnLCAnLW1hJywgJzIwMCcsICctaW1hZScsICc8aW5maWxlLm1hZT4nLCAnLW9tYWUnLCAnPG91dGZpbGUubWFlPic=

> <s_epik_input>
Tz1DKFtPSF0pW0NASF0oW0NIMl0xKVtOSF1DKD1PKWMoYyhDbClbY0hdW2NIXVtjSF0yKWMyT1tDSDJdXFtDSF09W0NIXVxbQ0gyXU9jKFtjSF1bY0hdYzEzKVtjSF1bY0hdMw==

> <s_lp_Force_Field>
OPLS_2005

> <s_lp_Variant>
MCD00052-1

> <s_m_source_file>
MCD00052.smi

$$$$
MCD00053
                    3D
 Schrodinger Suite 2023-4.
 46 48  0  0  1  0            999 V2000
   -1.4626    3.2154    0.9271 O   0  0  0  0  0  0
   -1.0270    2.0710    1.0410 C   0  0  0  0  0  0
   -0.2514    1.5194    0.0815 N   0  0  0  0  0  0
    0.2350    0.1378   -0.0617 C   0  0  2  0  0  0
    1.7555    0.1308   -0.2636 C   0  0  0  0  0  0
    2.4192   -0.6679    0.4332 O   0  0  0  0  0  0
    2.2296    0.9099   -1.1205 O   0  5  0  0  0  0
   -0.4757   -0.5730   -1.2342 C   0  0  0  0  0  0
   -1.9836   -0.6149   -1.0979 C   0  0  0  0  0  0
   -2.5829   -1.3840   -0.0813 C   0  0  0  0  0  0
   -3.9680   -1.2902    0.1444 C   0  0  0  0  0  0
   -4.7621   -0.4217   -0.6312 C   0  0  0  0  0  0
   -4.1702    0.2636   -1.7197 C   0  0  0  0  0  0
   -2.7856    0.1762   -1.9427 C   0  0  0  0  0  0
   -6.0721   -0.2517   -0.2419 O   0  0  0  0  0  0
   -6.7280    0.9674   -0.5871 C   0  0  0  0  0  0
   -6.0428    2.2460   -0.0430 C   0  0  0  0  0  0
   -6.0090    2.3942    1.4881 C   0  0  0  0  0  0
   -5.0796    1.4266    2.2409 C   0  0  0  0  0  0
   -3.7273    1.5325    1.7911 O   0  0  0  0  0  0
   -2.7293    0.9820    2.5799 C   0  0  0  0  0  0
   -3.0184    0.1494    3.6926 C   0  0  0  0  0  0
   -1.9929   -0.3344    4.5211 C   0  0  0  0  0  0
   -0.6620    0.0276    4.2687 C   0  0  0  0  0  0
   -0.3454    0.8344    3.1615 C   0  0  0  0  0  0
    1.3069    1.3160    2.9736 Cl  0  0  0  0  0  0
   -1.3677    1.2639    2.2698 C   0  0  0  0  0  0
   -0.0152    2.1238   -0.6921 H   0  0  0  0  0  0
    0.0274   -0.4362    0.8403 H   0  0  0  0  0  0
   -0.2154   -0.0896   -2.1775 H   0  0  0  0  0  0
   -0.1165   -1.6000   -1.3152 H   0  0  0  0  0  0
   -1.9748   -1.9991    0.5659 H   0  0  0  0  0  0
   -4.4109   -1.8332    0.9663 H   0  0  0  0  0  0
   -4.7501    0.9111   -2.3590 H   0  0  0  0  0  0
   -2.3364    0.7595   -2.7331 H   0  0  0  0  0  0
   -6.8494    1.0286   -1.6689 H   0  0  0  0  0  0
   -7.7408    0.9125   -0.1876 H   0  0  0  0  0  0
   -5.0346    2.3648   -0.4359 H   0  0  0  0  0  0
   -6.5953    3.0982   -0.4394 H   0  0  0  0  0  0
   -5.6973    3.4123    1.7242 H   0  0  0  0  0  0
   -7.0215    2.2960    1.8806 H   0  0  0  0  0  0
   -5.1427    1.6878    3.2983 H   0  0  0  0  0  0
   -5.4312    0.4001    2.1420 H   0  0  0  0  0  0
   -4.0291   -0.1335    3.9426 H   0  0  0  0  0  0
   -2.2312   -0.9601    5.3683 H   0  0  0  0  0  0
    0.1201   -0.3097    4.9330 H   0  0  0  0  0  0
  1  2  2  0  0  0
  2  3  1  0  0  0
  2 27  1  0  0  0
  3  4  1  0  0  0
  3 28  1  0  0  0
  4  5  1  0  0  0
  4  8  1  0  0  0
  4 29  1  0  0  0
  5  6  2  0  0  0
  5  7  1  0  0  0
  8  9  1  0  0  0
  8 30  1  0  0  0
  8 31  1  0  0  0
  9 10  2  0  0  0
  9 14  1  0  0  0
 10 11  1  0  0  0
 10 32  1  0  0  0
 11 12  2  0  0  0
 11 33  1  0  0  0
 12 13  1  0  0  0
 12 15  1  0  0  0
 13 14  2  0  0  0
 13 34  1  0  0  0
 14 35  1  0  0  0
 15 16  1  0  0  0
 16 17  1  0  0  0
 16 36  1  0  0  0
 16 37  1  0  0  0
 17 18  1  0  0  0
 17 38  1  0  0  0
 17 39  1  0  0  0
 18 19  1  0  0  0
 18 40  1  0  0  0
 18 41  1  0  0  0
 19 20  1  0  0  0
 19 42  1  0  0  0
 19 43  1  0  0  0
 20 21  1  0  0  0
 21 22  2  0  0  0
 21 27  1  0  0  0
 22 23  1  0  0  0
 22 44  1  0  0  0
 23 24  2  0  0  0
 23 45  1  0  0  0
 24 25  1  0  0  0
 24 46  1  0  0  0
 25 26  1  0  0  0
 25 27  2  0  0  0
M  CHG  1   7  -1
M  END
> <i_epik_Tot_Q>
-1

> <i_epik_Tot_abs_Q>
1

> <i_f3d_flags>
0

> <i_lp_mmshare_version>
64135

> <i_m_source_file_index>
1

> <b_lp_Chiralities_Consistent>
1

> <r_epik_Charging_Adjusted_Penalty>
0.000652373

> <r_epik_Ionization_Penalty>
0.00032646

> <r_epik_Ionization_Penalty_Charging>
0.000326187

> <r_epik_Ionization_Penalty_Neutral>
2.73226e-07

> <r_epik_State_Penalty>
0.000326187

> <r_lp_Energy>
32.7718

> <r_lp_tautomer_probability>
1

> <s_epik_cmdline>
J2VwaWtfcHl0aG9uJywgJy1waCcsICc3LjAnLCAnLXRuJywgJzgnLCAnLW1hJywgJzIwMCcsICctaW1hZScsICc8aW5maWxlLm1hZT4nLCAnLW9tYWUnLCAnPG91dGZpbGUubWFlPic=

> <s_epik_input>
Tz1DKFtPSF0pW0NASF0oW0NIMl0xKVtOSF1DKD1PKWMoYyhDbClbY0hdW2NIXVtjSF0yKWMyT1tDSDJdW0NIMl1bQ0gyXVtDSDJdT2MoW2NIXVtjSF1jMTMpW2NIXVtjSF0z

> <s_lp_Force_Field>
OPLS_2005

> <s_lp_Variant>
MCD00053-1

> <s_m_source_file>
MCD00053.smi

$$$$
MCD00054
                    3D
 Schrodinger Suite 2023-4.
 44 46  0  0  1  0            999 V2000
   -1.2387    3.2512    0.9962 O   0  0  0  0  0  0
   -0.7895    2.1119    1.1017 C   0  0  0  0  0  0
   -0.5367    1.3341    0.0296 N   0  0  0  0  0  0
    0.0350   -0.0165    0.0365 C   0  0  2  0  0  0
    1.5633    0.0517   -0.1100 C   0  0  0  0  0  0
    2.2398   -0.5862    0.7260 O   0  0  0  0  0  0
    2.0299    0.7379   -1.0469 O   0  5  0  0  0  0
   -0.5565   -0.8468   -1.1298 C   0  0  0  0  0  0
   -0.7733   -2.2892   -0.7126 C   0  0  0  0  0  0
    0.2442   -3.2529   -0.8536 C   0  0  0  0  0  0
    0.0693   -4.5363   -0.3013 C   0  0  0  0  0  0
   -1.1066   -4.8459    0.4119 C   0  0  0  0  0  0
   -2.1408   -3.8960    0.5444 C   0  0  0  0  0  0
   -1.9730   -2.6274   -0.0595 C   0  0  0  0  0  0
   -3.2376   -4.2420    1.3091 O   0  0  0  0  0  0
   -4.4682   -3.5470    1.1077 C   0  0  0  0  0  0
   -4.5660   -2.1831    1.7782 C   0  0  0  0  0  0
   -3.6426   -1.5996    2.5629 C   0  0  0  0  0  0
   -3.7593   -0.1765    3.0725 C   0  0  0  0  0  0
   -2.7421    0.6504    2.5120 O   0  0  0  0  0  0
   -1.5017    0.7513    3.1165 C   0  0  0  0  0  0
   -1.1782    0.1297    4.3497 C   0  0  0  0  0  0
    0.0864    0.3121    4.9362 C   0  0  0  0  0  0
    1.0466    1.1187    4.3044 C   0  0  0  0  0  0
    0.7563    1.7284    3.0707 C   0  0  0  0  0  0
    1.9802    2.7042    2.3311 Cl  0  0  0  0  0  0
   -0.5098    1.5320    2.4625 C   0  0  0  0  0  0
   -0.7161    1.7320   -0.8805 H   0  0  0  0  0  0
   -0.2100   -0.5179    0.9736 H   0  0  0  0  0  0
   -1.5241   -0.4402   -1.4291 H   0  0  0  0  0  0
    0.0621   -0.8091   -2.0283 H   0  0  0  0  0  0
    1.1707   -2.9992   -1.3479 H   0  0  0  0  0  0
    0.8539   -5.2727   -0.3932 H   0  0  0  0  0  0
   -1.2127   -5.8201    0.8658 H   0  0  0  0  0  0
   -2.7235   -1.8594    0.0284 H   0  0  0  0  0  0
   -4.6639   -3.4363    0.0401 H   0  0  0  0  0  0
   -5.2722   -4.1693    1.5004 H   0  0  0  0  0  0
   -5.4603   -1.6282    1.5355 H   0  0  0  0  0  0
   -2.7309   -2.1233    2.8109 H   0  0  0  0  0  0
   -4.7124    0.2349    2.7390 H   0  0  0  0  0  0
   -3.8068   -0.1434    4.1596 H   0  0  0  0  0  0
   -1.8790   -0.4968    4.8771 H   0  0  0  0  0  0
    0.3180   -0.1634    5.8776 H   0  0  0  0  0  0
    2.0137    1.2617    4.7634 H   0  0  0  0  0  0
  1  2  2  0  0  0
  2  3  1  0  0  0
  2 27  1  0  0  0
  3  4  1  0  0  0
  3 28  1  0  0  0
  4  5  1  0  0  0
  4  8  1  0  0  0
  4 29  1  0  0  0
  5  6  2  0  0  0
  5  7  1  0  0  0
  8  9  1  0  0  0
  8 30  1  0  0  0
  8 31  1  0  0  0
  9 10  2  0  0  0
  9 14  1  0  0  0
 10 11  1  0  0  0
 10 32  1  0  0  0
 11 12  2  0  0  0
 11 33  1  0  0  0
 12 13  1  0  0  0
 12 34  1  0  0  0
 13 14  2  0  0  0
 13 15  1  0  0  0
 14 35  1  0  0  0
 15 16  1  0  0  0
 16 17  1  0  0  0
 16 36  1  0  0  0
 16 37  1  0  0  0
 17 18  2  0  0  0
 17 38  1  0  0  0
 18 19  1  0  0  0
 18 39  1  0  0  0
 19 20  1  0  0  0
 19 40  1  0  0  0
 19 41  1  0  0  0
 20 21  1  0  0  0
 21 22  2  0  0  0
 21 27  1  0  0  0
 22 23  1  0  0  0
 22 42  1  0  0  0
 23 24  2  0  0  0
 23 43  1  0  0  0
 24 25  1  0  0  0
 24 44  1  0  0  0
 25 26  1  0  0  0
 25 27  2  0  0  0
M  CHG  1   7  -1
M  END
> <i_epik_Tot_Q>
-1

> <i_epik_Tot_abs_Q>
1

> <i_f3d_flags>
0

> <i_lp_mmshare_version>
64135

> <i_m_source_file_index>
1

> <b_lp_Chiralities_Consistent>
1

> <r_epik_Charging_Adjusted_Penalty>
0.000248581

> <r_epik_Ionization_Penalty>
0.000248898

> <r_epik_Ionization_Penalty_Charging>
0.000248581

> <r_epik_Ionization_Penalty_Neutral>
3.16698e-07

> <r_epik_State_Penalty>
-0

> <r_lp_Energy>
31.3965

> <r_lp_tautomer_probability>
1

> <s_epik_cmdline>
J2VwaWtfcHl0aG9uJywgJy1waCcsICc3LjAnLCAnLXRuJywgJzgnLCAnLW1hJywgJzIwMCcsICctaW1hZScsICc8aW5maWxlLm1hZT4nLCAnLW9tYWUnLCAnPG91dGZpbGUubWFlPic=

> <s_epik_input>
Tz1DKFtPSF0pW0NASF0oW0NIMl0xKVtOSF1DKD1PKWMoYyhDbClbY0hdW2NIXVtjSF0yKWMyT1tDSDJdXFtDSF09W0NIXVxbQ0gyXU9jKFtjSF0zKVtjSF1bY0hdW2NIXWMxMw==

> <s_lp_Force_Field>
OPLS_2005

> <s_lp_Variant>
MCD00054-1

> <s_m_source_file>
MCD00054.smi

$$$$
MCD00055
                    3D
 Schrodinger Suite 2023-4.
 46 48  0  0  1  0            999 V2000
   -0.6283    3.5682   -0.7184 O   0  0  0  0  0  0
   -0.0313    2.4944   -0.7668 C   0  0  0  0  0  0
   -0.2947    1.5098    0.1209 N   0  0  0  0  0  0
   -0.0289    0.0601    0.0988 C   0  0  2  0  0  0
    1.3417   -0.3451    0.6547 C   0  0  0  0  0  0
    1.5127   -0.2282    1.8882 O   0  0  0  0  0  0
    2.1985   -0.7596   -0.1572 O   0  5  0  0  0  0
   -0.4750   -0.6747   -1.1884 C   0  0  0  0  0  0
   -1.9816   -0.7548   -1.3642 C   0  0  0  0  0  0
   -2.7126   -1.8603   -0.8856 C   0  0  0  0  0  0
   -4.1105   -1.9013   -1.0537 C   0  0  0  0  0  0
   -4.7786   -0.8407   -1.6986 C   0  0  0  0  0  0
   -4.0609    0.2722   -2.1832 C   0  0  0  0  0  0
   -2.6578    0.2973   -2.0035 C   0  0  0  0  0  0
   -4.7730    1.2783   -2.8062 O   0  0  0  0  0  0
   -4.0580    2.3930   -3.3378 C   0  0  0  0  0  0
   -3.3932    2.0423   -4.6840 C   0  0  0  0  0  0
   -2.3552    3.0822   -5.1435 C   0  0  0  0  0  0
   -0.8940    2.6466   -4.9345 C   0  0  0  0  0  0
   -0.5896    2.5097   -3.5502 O   0  0  0  0  0  0
    0.7240    2.2816   -3.1786 C   0  0  0  0  0  0
    1.7546    2.0462   -4.1249 C   0  0  0  0  0  0
    3.0900    1.8982   -3.7145 C   0  0  0  0  0  0
    3.4226    2.0237   -2.3571 C   0  0  0  0  0  0
    2.4175    2.2501   -1.3997 C   0  0  0  0  0  0
    2.9151    2.5443    0.2334 Cl  0  0  0  0  0  0
    1.0534    2.3035   -1.7944 C   0  0  0  0  0  0
   -0.9403    1.7782    0.8487 H   0  0  0  0  0  0
   -0.7065   -0.3167    0.8669 H   0  0  0  0  0  0
   -0.0293   -0.2237   -2.0741 H   0  0  0  0  0  0
   -0.1008   -1.6995   -1.1733 H   0  0  0  0  0  0
   -2.2058   -2.6739   -0.3873 H   0  0  0  0  0  0
   -4.6719   -2.7475   -0.6864 H   0  0  0  0  0  0
   -5.8508   -0.8819   -1.8220 H   0  0  0  0  0  0
   -2.0656    1.1229   -2.3476 H   0  0  0  0  0  0
   -4.7753    3.1978   -3.4996 H   0  0  0  0  0  0
   -3.3469    2.7945   -2.6148 H   0  0  0  0  0  0
   -2.9272    1.0577   -4.6472 H   0  0  0  0  0  0
   -4.1783    1.9582   -5.4362 H   0  0  0  0  0  0
   -2.4973    3.2555   -6.2107 H   0  0  0  0  0  0
   -2.5353    4.0448   -4.6636 H   0  0  0  0  0  0
   -0.7130    1.7033   -5.4521 H   0  0  0  0  0  0
   -0.2458    3.4020   -5.3816 H   0  0  0  0  0  0
    1.5505    1.9842   -5.1826 H   0  0  0  0  0  0
    3.8649    1.7257   -4.4467 H   0  0  0  0  0  0
    4.4567    1.9652   -2.0507 H   0  0  0  0  0  0
  1  2  2  0  0  0
  2  3  1  0  0  0
  2 27  1  0  0  0
  3  4  1  0  0  0
  3 28  1  0  0  0
  4  5  1  0  0  0
  4  8  1  0  0  0
  4 29  1  0  0  0
  5  6  2  0  0  0
  5  7  1  0  0  0
  8  9  1  0  0  0
  8 30  1  0  0  0
  8 31  1  0  0  0
  9 10  2  0  0  0
  9 14  1  0  0  0
 10 11  1  0  0  0
 10 32  1  0  0  0
 11 12  2  0  0  0
 11 33  1  0  0  0
 12 13  1  0  0  0
 12 34  1  0  0  0
 13 14  2  0  0  0
 13 15  1  0  0  0
 14 35  1  0  0  0
 15 16  1  0  0  0
 16 17  1  0  0  0
 16 36  1  0  0  0
 16 37  1  0  0  0
 17 18  1  0  0  0
 17 38  1  0  0  0
 17 39  1  0  0  0
 18 19  1  0  0  0
 18 40  1  0  0  0
 18 41  1  0  0  0
 19 20  1  0  0  0
 19 42  1  0  0  0
 19 43  1  0  0  0
 20 21  1  0  0  0
 21 22  2  0  0  0
 21 27  1  0  0  0
 22 23  1  0  0  0
 22 44  1  0  0  0
 23 24  2  0  0  0
 23 45  1  0  0  0
 24 25  1  0  0  0
 24 46  1  0  0  0
 25 26  1  0  0  0
 25 27  2  0  0  0
M  CHG  1   7  -1
M  END
> <i_epik_Tot_Q>
-1

> <i_epik_Tot_abs_Q>
1

> <i_f3d_flags>
0

> <i_lp_mmshare_version>
64135

> <i_m_source_file_index>
1

> <b_lp_Chiralities_Consistent>
1

> <r_epik_Charging_Adjusted_Penalty>
0.000282166

> <r_epik_Ionization_Penalty>
0.00028244

> <r_epik_Ionization_Penalty_Charging>
0.000282166

> <r_epik_Ionization_Penalty_Neutral>
2.73326e-07

> <r_epik_State_Penalty>
-0

> <r_lp_Energy>
35.7575

> <r_lp_tautomer_probability>
1

> <s_epik_cmdline>
J2VwaWtfcHl0aG9uJywgJy1waCcsICc3LjAnLCAnLXRuJywgJzgnLCAnLW1hJywgJzIwMCcsICctaW1hZScsICc8aW5maWxlLm1hZT4nLCAnLW9tYWUnLCAnPG91dGZpbGUubWFlPic=

> <s_epik_input>
Tz1DKFtPSF0pW0NASF0oW0NIMl0xKVtOSF1DKD1PKWMoYyhDbClbY0hdW2NIXVtjSF0yKWMyT1tDSDJdW0NIMl1bQ0gyXVtDSDJdT2MoW2NIXTMpW2NIXVtjSF1bY0hdYzEz

> <s_lp_Force_Field>
OPLS_2005

> <s_lp_Variant>
MCD00055-1

> <s_m_source_file>
MCD00055.smi

$$$$
MCD00056
                    3D
 Schrodinger Suite 2023-4.
 44 46  0  0  1  0            999 V2000
   -1.6179    3.2029    0.5935 O   0  0  0  0  0  0
   -1.2464    2.0585    0.8469 C   0  0  0  0  0  0
   -0.3816    1.4157    0.0362 N   0  0  0  0  0  0
    0.0122    0.0024    0.0067 C   0  0  2  0  0  0
    1.5411   -0.1230    0.0244 C   0  0  0  0  0  0
    2.0357   -0.9461    0.8256 O   0  0  0  0  0  0
    2.1901    0.5903   -0.7733 O   0  5  0  0  0  0
   -0.5774   -0.6820   -1.2439 C   0  0  0  0  0  0
   -2.0903   -0.7638   -1.2473 C   0  0  0  0  0  0
   -2.8496    0.1630   -1.9888 C   0  0  0  0  0  0
   -4.2547    0.1301   -1.9283 C   0  0  0  0  0  0
   -4.9154   -0.8181   -1.1222 C   0  0  0  0  0  0
   -4.1475   -1.7810   -0.4222 C   0  0  0  0  0  0
   -2.7426   -1.7478   -0.4799 C   0  0  0  0  0  0
   -6.2881   -0.7286   -1.0407 O   0  0  0  0  0  0
   -6.9251   -1.2125    0.1393 C   0  0  0  0  0  0
   -6.3707   -0.5604    1.3933 C   0  0  0  0  0  0
   -6.5923    0.7152    1.7468 C   0  0  0  0  0  0
   -5.9973    1.4027    2.9610 C   0  0  0  0  0  0
   -5.0819    0.5789    3.6803 O   0  0  0  0  0  0
   -3.7310    0.6831    3.4173 C   0  0  0  0  0  0
   -2.8594    0.2016    4.4121 C   0  0  0  0  0  0
   -1.4680    0.3450    4.2769 C   0  0  0  0  0  0
   -0.9213    0.9581    3.1346 C   0  0  0  0  0  0
    0.7858    1.2391    3.1117 Cl  0  0  0  0  0  0
   -1.7758    1.3739    2.0797 C   0  0  0  0  0  0
   -3.1772    1.2448    2.2388 C   0  0  0  0  0  0
   -0.0161    1.9609   -0.7310 H   0  0  0  0  0  0
   -0.3676   -0.5202    0.8848 H   0  0  0  0  0  0
   -0.2445   -0.1667   -2.1464 H   0  0  0  0  0  0
   -0.1900   -1.6990   -1.3244 H   0  0  0  0  0  0
   -2.3571    0.9197   -2.5818 H   0  0  0  0  0  0
   -4.8287    0.8642   -2.4743 H   0  0  0  0  0  0
   -4.6184   -2.5368    0.1876 H   0  0  0  0  0  0
   -2.1656   -2.4650    0.0855 H   0  0  0  0  0  0
   -7.9854   -0.9694    0.0645 H   0  0  0  0  0  0
   -6.8641   -2.2988    0.2110 H   0  0  0  0  0  0
   -5.7107   -1.1745    1.9881 H   0  0  0  0  0  0
   -7.2383    1.3250    1.1321 H   0  0  0  0  0  0
   -5.5575    2.3594    2.6770 H   0  0  0  0  0  0
   -6.8195    1.6453    3.6342 H   0  0  0  0  0  0
   -3.2629   -0.2439    5.3096 H   0  0  0  0  0  0
   -0.8176    0.0150    5.0736 H   0  0  0  0  0  0
   -3.8225    1.5952    1.4465 H   0  0  0  0  0  0
  1  2  2  0  0  0
  2  3  1  0  0  0
  2 26  1  0  0  0
  3  4  1  0  0  0
  3 28  1  0  0  0
  4  5  1  0  0  0
  4  8  1  0  0  0
  4 29  1  0  0  0
  5  6  2  0  0  0
  5  7  1  0  0  0
  8  9  1  0  0  0
  8 30  1  0  0  0
  8 31  1  0  0  0
  9 10  2  0  0  0
  9 14  1  0  0  0
 10 11  1  0  0  0
 10 32  1  0  0  0
 11 12  2  0  0  0
 11 33  1  0  0  0
 12 13  1  0  0  0
 12 15  1  0  0  0
 13 14  2  0  0  0
 13 34  1  0  0  0
 14 35  1  0  0  0
 15 16  1  0  0  0
 16 17  1  0  0  0
 16 36  1  0  0  0
 16 37  1  0  0  0
 17 18  2  0  0  0
 17 38  1  0  0  0
 18 19  1  0  0  0
 18 39  1  0  0  0
 19 20  1  0  0  0
 19 40  1  0  0  0
 19 41  1  0  0  0
 20 21  1  0  0  0
 21 22  1  0  0  0
 21 27  2  0  0  0
 22 23  2  0  0  0
 22 42  1  0  0  0
 23 24  1  0  0  0
 23 43  1  0  0  0
 24 25  1  0  0  0
 24 26  2  0  0  0
 26 27  1  0  0  0
 27 44  1  0  0  0
M  CHG  1   7  -1
M  END
> <i_epik_Tot_Q>
-1

> <i_epik_Tot_abs_Q>
1

> <i_f3d_flags>
0

> <i_lp_mmshare_version>
64135

> <i_m_source_file_index>
1

> <b_lp_Chiralities_Consistent>
1

> <r_epik_Charging_Adjusted_Penalty>
0.000696156

> <r_epik_Ionization_Penalty>
0.000348739

> <r_epik_Ionization_Penalty_Charging>
0.000348078

> <r_epik_Ionization_Penalty_Neutral>
6.61109e-07

> <r_epik_State_Penalty>
0.000348078

> <r_lp_Energy>
29.1536

> <r_lp_tautomer_probability>
1

> <s_epik_cmdline>
J2VwaWtfcHl0aG9uJywgJy1waCcsICc3LjAnLCAnLXRuJywgJzgnLCAnLW1hJywgJzIwMCcsICctaW1hZScsICc8aW5maWxlLm1hZT4nLCAnLW9tYWUnLCAnPG91dGZpbGUubWFlPic=

> <s_epik_input>
Tz1DKFtPSF0pW0NASF0oW0NIMl0xKVtOSF1DKD1PKWMoW2NIXTIpYyhDbClbY0hdW2NIXWMyT1tDSDJdXFtDSF09W0NIXVxbQ0gyXU9jKFtjSF1bY0hdYzEzKVtjSF1bY0hdMw==

> <s_lp_Force_Field>
OPLS_2005

> <s_lp_Variant>
MCD00056-1

> <s_m_source_file>
MCD00056.smi

$$$$
MCD00057
                    3D
 Schrodinger Suite 2023-4.
 46 48  0  0  1  0            999 V2000
   -1.6642    3.2208    0.4267 O   0  0  0  0  0  0
   -1.4093    2.0347    0.6248 C   0  0  0  0  0  0
   -0.3782    1.4298    0.0055 N   0  0  0  0  0  0
    0.0121    0.0183   -0.0199 C   0  0  2  0  0  0
    1.5359   -0.0863    0.0997 C   0  0  0  0  0  0
    1.9938   -0.6848    1.0977 O   0  0  0  0  0  0
    2.2192    0.4329   -0.8109 O   0  5  0  0  0  0
   -0.5440   -0.6927   -1.2759 C   0  0  0  0  0  0
   -2.0081   -1.0800   -1.1839 C   0  0  0  0  0  0
   -2.3853   -2.1855   -0.3976 C   0  0  0  0  0  0
   -3.7433   -2.5162   -0.2422 C   0  0  0  0  0  0
   -4.7501   -1.7303   -0.8573 C   0  0  0  0  0  0
   -4.3590   -0.6653   -1.6955 C   0  0  0  0  0  0
   -2.9981   -0.3375   -1.8584 C   0  0  0  0  0  0
   -6.1031   -1.9227   -0.6660 O   0  0  0  0  0  0
   -6.5106   -2.7224    0.4404 C   0  0  0  0  0  0
   -7.8897   -2.2777    0.9542 C   0  0  0  0  0  0
   -7.9680   -0.8257    1.4760 C   0  0  0  0  0  0
   -6.8055   -0.3967    2.3908 C   0  0  0  0  0  0
   -5.7874    0.1353    1.5523 O   0  0  0  0  0  0
   -4.5140    0.3269    2.0406 C   0  0  0  0  0  0
   -4.0392   -0.1526    3.2840 C   0  0  0  0  0  0
   -2.6999    0.0689    3.6603 C   0  0  0  0  0  0
   -1.8167    0.7657    2.8109 C   0  0  0  0  0  0
   -0.1981    1.0462    3.3554 Cl  0  0  0  0  0  0
   -2.2805    1.2436    1.5599 C   0  0  0  0  0  0
   -3.6291    1.0358    1.2056 C   0  0  0  0  0  0
    0.1903    2.0251   -0.5794 H   0  0  0  0  0  0
   -0.3888   -0.4966    0.8529 H   0  0  0  0  0  0
   -0.3812   -0.0764   -2.1614 H   0  0  0  0  0  0
    0.0154   -1.6127   -1.4540 H   0  0  0  0  0  0
   -1.6315   -2.7709    0.1085 H   0  0  0  0  0  0
   -3.9865   -3.3669    0.3755 H   0  0  0  0  0  0
   -5.1124   -0.0653   -2.1842 H   0  0  0  0  0  0
   -2.7205    0.5062   -2.4728 H   0  0  0  0  0  0
   -6.5477   -3.7660    0.1258 H   0  0  0  0  0  0
   -5.8139   -2.6677    1.2763 H   0  0  0  0  0  0
   -8.6348   -2.4181    0.1705 H   0  0  0  0  0  0
   -8.1786   -2.9501    1.7627 H   0  0  0  0  0  0
   -8.0420   -0.1331    0.6364 H   0  0  0  0  0  0
   -8.9042   -0.7201    2.0251 H   0  0  0  0  0  0
   -7.1312    0.3873    3.0755 H   0  0  0  0  0  0
   -6.4825   -1.2473    2.9901 H   0  0  0  0  0  0
   -4.6753   -0.6939    3.9663 H   0  0  0  0  0  0
   -2.3491   -0.2949    4.6149 H   0  0  0  0  0  0
   -3.9951    1.4158    0.2627 H   0  0  0  0  0  0
  1  2  2  0  0  0
  2  3  1  0  0  0
  2 26  1  0  0  0
  3  4  1  0  0  0
  3 28  1  0  0  0
  4  5  1  0  0  0
  4  8  1  0  0  0
  4 29  1  0  0  0
  5  6  2  0  0  0
  5  7  1  0  0  0
  8  9  1  0  0  0
  8 30  1  0  0  0
  8 31  1  0  0  0
  9 10  2  0  0  0
  9 14  1  0  0  0
 10 11  1  0  0  0
 10 32  1  0  0  0
 11 12  2  0  0  0
 11 33  1  0  0  0
 12 13  1  0  0  0
 12 15  1  0  0  0
 13 14  2  0  0  0
 13 34  1  0  0  0
 14 35  1  0  0  0
 15 16  1  0  0  0
 16 17  1  0  0  0
 16 36  1  0  0  0
 16 37  1  0  0  0
 17 18  1  0  0  0
 17 38  1  0  0  0
 17 39  1  0  0  0
 18 19  1  0  0  0
 18 40  1  0  0  0
 18 41  1  0  0  0
 19 20  1  0  0  0
 19 42  1  0  0  0
 19 43  1  0  0  0
 20 21  1  0  0  0
 21 22  1  0  0  0
 21 27  2  0  0  0
 22 23  2  0  0  0
 22 44  1  0  0  0
 23 24  1  0  0  0
 23 45  1  0  0  0
 24 25  1  0  0  0
 24 26  2  0  0  0
 26 27  1  0  0  0
 27 46  1  0  0  0
M  CHG  1   7  -1
M  END
> <i_epik_Tot_Q>
-1

> <i_epik_Tot_abs_Q>
1

> <i_f3d_flags>
0

> <i_lp_mmshare_version>
64135

> <i_m_source_file_index>
1

> <b_lp_Chiralities_Consistent>
1

> <r_epik_Charging_Adjusted_Penalty>
0.000654282

> <r_epik_Ionization_Penalty>
0.000327603

> <r_epik_Ionization_Penalty_Charging>
0.000327141

> <r_epik_Ionization_Penalty_Neutral>
4.61731e-07

> <r_epik_State_Penalty>
0.000327141

> <r_lp_Energy>
30.7955

> <r_lp_tautomer_probability>
1

> <s_epik_cmdline>
J2VwaWtfcHl0aG9uJywgJy1waCcsICc3LjAnLCAnLXRuJywgJzgnLCAnLW1hJywgJzIwMCcsICctaW1hZScsICc8aW5maWxlLm1hZT4nLCAnLW9tYWUnLCAnPG91dGZpbGUubWFlPic=

> <s_epik_input>
Tz1DKFtPSF0pW0NASF0oW0NIMl0xKVtOSF1DKD1PKWMoW2NIXTIpYyhDbClbY0hdW2NIXWMyT1tDSDJdW0NIMl1bQ0gyXVtDSDJdT2MoW2NIXVtjSF1jMTMpW2NIXVtjSF0z

> <s_lp_Force_Field>
OPLS_2005

> <s_lp_Variant>
MCD00057-1

> <s_m_source_file>
MCD00057.smi

$$$$
MCD00058
                    3D
 Schrodinger Suite 2023-4.
 44 46  0  0  1  0            999 V2000
   -1.5677    3.1692    0.7019 O   0  0  0  0  0  0
   -1.3693    1.9579    0.7734 C   0  0  0  0  0  0
   -0.3754    1.3646    0.0847 N   0  0  0  0  0  0
    0.0639   -0.0334    0.1034 C   0  0  2  0  0  0
    1.5815   -0.0755    0.3199 C   0  0  0  0  0  0
    1.9926   -0.5977    1.3792 O   0  0  0  0  0  0
    2.3048    0.4191   -0.5734 O   0  5  0  0  0  0
   -0.3829   -0.7334   -1.1998 C   0  0  0  0  0  0
   -0.0418   -2.2112   -1.3256 C   0  0  0  0  0  0
    0.7562   -2.6585   -2.3981 C   0  0  0  0  0  0
    1.0307   -4.0293   -2.5486 C   0  0  0  0  0  0
    0.5036   -4.9570   -1.6316 C   0  0  0  0  0  0
   -0.2859   -4.5308   -0.5443 C   0  0  0  0  0  0
   -0.5488   -3.1447   -0.3950 C   0  0  0  0  0  0
   -0.7611   -5.5185    0.2946 O   0  0  0  0  0  0
   -1.3428   -5.1645    1.5444 C   0  0  0  0  0  0
   -2.7697   -4.6694    1.4078 C   0  0  0  0  0  0
   -3.2275   -3.5708    2.0270 C   0  0  0  0  0  0
   -4.6218   -2.9886    1.8788 C   0  0  0  0  0  0
   -4.5825   -1.7097    1.2497 O   0  0  0  0  0  0
   -3.8619   -0.7207    1.8820 C   0  0  0  0  0  0
   -3.8608   -0.5389    3.2839 C   0  0  0  0  0  0
   -3.0624    0.4625    3.8661 C   0  0  0  0  0  0
   -2.2461    1.2836    3.0642 C   0  0  0  0  0  0
   -1.2543    2.4691    3.8432 Cl  0  0  0  0  0  0
   -2.2387    1.1090    1.6578 C   0  0  0  0  0  0
   -3.0758    0.1288    1.0808 C   0  0  0  0  0  0
    0.1893    1.9729   -0.4905 H   0  0  0  0  0  0
   -0.3856   -0.5561    0.9481 H   0  0  0  0  0  0
   -1.4621   -0.6486   -1.3144 H   0  0  0  0  0  0
    0.0355   -0.2001   -2.0550 H   0  0  0  0  0  0
    1.1530   -1.9543   -3.1145 H   0  0  0  0  0  0
    1.6394   -4.3709   -3.3727 H   0  0  0  0  0  0
    0.7125   -6.0088   -1.7608 H   0  0  0  0  0  0
   -1.1530   -2.7749    0.4174 H   0  0  0  0  0  0
   -1.3632   -6.0639    2.1597 H   0  0  0  0  0  0
   -0.7200   -4.4432    2.0767 H   0  0  0  0  0  0
   -3.4209   -5.2398    0.7618 H   0  0  0  0  0  0
   -2.5528   -3.0208    2.6668 H   0  0  0  0  0  0
   -5.2215   -3.6498    1.2527 H   0  0  0  0  0  0
   -5.1221   -2.9512    2.8461 H   0  0  0  0  0  0
   -4.4657   -1.1594    3.9270 H   0  0  0  0  0  0
   -3.0656    0.5911    4.9385 H   0  0  0  0  0  0
   -3.0963   -0.0009    0.0098 H   0  0  0  0  0  0
  1  2  2  0  0  0
  2  3  1  0  0  0
  2 26  1  0  0  0
  3  4  1  0  0  0
  3 28  1  0  0  0
  4  5  1  0  0  0
  4  8  1  0  0  0
  4 29  1  0  0  0
  5  6  2  0  0  0
  5  7  1  0  0  0
  8  9  1  0  0  0
  8 30  1  0  0  0
  8 31  1  0  0  0
  9 10  2  0  0  0
  9 14  1  0  0  0
 10 11  1  0  0  0
 10 32  1  0  0  0
 11 12  2  0  0  0
 11 33  1  0  0  0
 12 13  1  0  0  0
 12 34  1  0  0  0
 13 14  2  0  0  0
 13 15  1  0  0  0
 14 35  1  0  0  0
 15 16  1  0  0  0
 16 17  1  0  0  0
 16 36  1  0  0  0
 16 37  1  0  0  0
 17 18  2  0  0  0
 17 38  1  0  0  0
 18 19  1  0  0  0
 18 39  1  0  0  0
 19 20  1  0  0  0
 19 40  1  0  0  0
 19 41  1  0  0  0
 20 21  1  0  0  0
 21 22  1  0  0  0
 21 27  2  0  0  0
 22 23  2  0  0  0
 22 42  1  0  0  0
 23 24  1  0  0  0
 23 43  1  0  0  0
 24 25  1  0  0  0
 24 26  2  0  0  0
 26 27  1  0  0  0
 27 44  1  0  0  0
M  CHG  1   7  -1
M  END
> <i_epik_Tot_Q>
-1

> <i_epik_Tot_abs_Q>
1

> <i_f3d_flags>
0

> <i_lp_mmshare_version>
64135

> <i_m_source_file_index>
1

> <b_lp_Chiralities_Consistent>
1

> <r_epik_Charging_Adjusted_Penalty>
0.000250147

> <r_epik_Ionization_Penalty>
0.000250808

> <r_epik_Ionization_Penalty_Charging>
0.000250147

> <r_epik_Ionization_Penalty_Neutral>
6.61462e-07

> <r_epik_State_Penalty>
-0

> <r_lp_Energy>
24.1289

> <r_lp_tautomer_probability>
1

> <s_epik_cmdline>
J2VwaWtfcHl0aG9uJywgJy1waCcsICc3LjAnLCAnLXRuJywgJzgnLCAnLW1hJywgJzIwMCcsICctaW1hZScsICc8aW5maWxlLm1hZT4nLCAnLW9tYWUnLCAnPG91dGZpbGUubWFlPic=

> <s_epik_input>
Tz1DKFtPSF0pW0NASF0oW0NIMl0xKVtOSF1DKD1PKWMoW2NIXTIpYyhDbClbY0hdW2NIXWMyT1tDSDJdXFtDSF09W0NIXVxbQ0gyXU9jKFtjSF0zKVtjSF1bY0hdW2NIXWMxMw==

> <s_lp_Force_Field>
OPLS_2005

> <s_lp_Variant>
MCD00058-1

> <s_m_source_file>
MCD00058.smi

$$$$
MCD00059
                    3D
 Schrodinger Suite 2023-4.
 46 48  0  0  1  0            999 V2000
   -1.4298    3.2401    0.8152 O   0  0  0  0  0  0
   -1.1604    2.0483    0.9538 C   0  0  0  0  0  0
   -0.5615    1.3442   -0.0265 N   0  0  0  0  0  0
   -0.0120   -0.0117    0.0366 C   0  0  2  0  0  0
    1.5194    0.0615    0.1192 C   0  0  0  0  0  0
    2.0643   -0.5395    1.0706 O   0  0  0  0  0  0
    2.1203    0.7171   -0.7617 O   0  5  0  0  0  0
   -0.4414   -0.7920   -1.2302 C   0  0  0  0  0  0
   -0.4664   -2.2960   -1.0247 C   0  0  0  0  0  0
    0.4513   -3.1517   -1.6646 C   0  0  0  0  0  0
    0.4078   -4.5368   -1.4084 C   0  0  0  0  0  0
   -0.5333   -5.0639   -0.4994 C   0  0  0  0  0  0
   -1.4481   -4.2168    0.1597 C   0  0  0  0  0  0
   -1.4203   -2.8328   -0.1421 C   0  0  0  0  0  0
   -2.3117   -4.7741    1.0838 O   0  0  0  0  0  0
   -3.0512   -3.8586    1.8843 C   0  0  0  0  0  0
   -3.7442   -4.5312    3.0734 C   0  0  0  0  0  0
   -4.6431   -3.5625    3.8731 C   0  0  0  0  0  0
   -3.9329   -2.2902    4.3776 C   0  0  0  0  0  0
   -3.7892   -1.3698    3.2977 O   0  0  0  0  0  0
   -2.8563   -0.3607    3.4087 C   0  0  0  0  0  0
   -2.2595    0.0299    4.6305 C   0  0  0  0  0  0
   -1.3063    1.0650    4.6545 C   0  0  0  0  0  0
   -0.9316    1.7248    3.4680 C   0  0  0  0  0  0
    0.2621    2.9746    3.5625 Cl  0  0  0  0  0  0
   -1.5204    1.3464    2.2365 C   0  0  0  0  0  0
   -2.4896    0.3160    2.2260 C   0  0  0  0  0  0
   -0.3551    1.8478   -0.8769 H   0  0  0  0  0  0
   -0.3700   -0.5367    0.9203 H   0  0  0  0  0  0
   -1.4553   -0.5015   -1.5108 H   0  0  0  0  0  0
    0.1798   -0.5400   -2.0912 H   0  0  0  0  0  0
    1.1904   -2.7506   -2.3426 H   0  0  0  0  0  0
    1.1106   -5.1954   -1.8970 H   0  0  0  0  0  0
   -0.5403   -6.1242   -0.2934 H   0  0  0  0  0  0
   -2.1077   -2.1403    0.3184 H   0  0  0  0  0  0
   -2.3606   -3.1163    2.2855 H   0  0  0  0  0  0
   -3.7926   -3.3484    1.2673 H   0  0  0  0  0  0
   -4.3492   -5.3649    2.7160 H   0  0  0  0  0  0
   -2.9891   -4.9606    3.7328 H   0  0  0  0  0  0
   -5.5097   -3.2796    3.2744 H   0  0  0  0  0  0
   -5.0391   -4.1043    4.7325 H   0  0  0  0  0  0
   -4.5264   -1.8189    5.1620 H   0  0  0  0  0  0
   -2.9692   -2.5659    4.8091 H   0  0  0  0  0  0
   -2.5225   -0.4474    5.5623 H   0  0  0  0  0  0
   -0.8561    1.3532    5.5930 H   0  0  0  0  0  0
   -2.9509    0.0270    1.2925 H   0  0  0  0  0  0
  1  2  2  0  0  0
  2  3  1  0  0  0
  2 26  1  0  0  0
  3  4  1  0  0  0
  3 28  1  0  0  0
  4  5  1  0  0  0
  4  8  1  0  0  0
  4 29  1  0  0  0
  5  6  2  0  0  0
  5  7  1  0  0  0
  8  9  1  0  0  0
  8 30  1  0  0  0
  8 31  1  0  0  0
  9 10  2  0  0  0
  9 14  1  0  0  0
 10 11  1  0  0  0
 10 32  1  0  0  0
 11 12  2  0  0  0
 11 33  1  0  0  0
 12 13  1  0  0  0
 12 34  1  0  0  0
 13 14  2  0  0  0
 13 15  1  0  0  0
 14 35  1  0  0  0
 15 16  1  0  0  0
 16 17  1  0  0  0
 16 36  1  0  0  0
 16 37  1  0  0  0
 17 18  1  0  0  0
 17 38  1  0  0  0
 17 39  1  0  0  0
 18 19  1  0  0  0
 18 40  1  0  0  0
 18 41  1  0  0  0
 19 20  1  0  0  0
 19 42  1  0  0  0
 19 43  1  0  0  0
 20 21  1  0  0  0
 21 22  1  0  0  0
 21 27  2  0  0  0
 22 23  2  0  0  0
 22 44  1  0  0  0
 23 24  1  0  0  0
 23 45  1  0  0  0
 24 25  1  0  0  0
 24 26  2  0  0  0
 26 27  1  0  0  0
 27 46  1  0  0  0
M  CHG  1   7  -1
M  END
> <i_epik_Tot_Q>
-1

> <i_epik_Tot_abs_Q>
1

> <i_f3d_flags>
0

> <i_lp_mmshare_version>
64135

> <i_m_source_file_index>
1

> <b_lp_Chiralities_Consistent>
1

> <r_epik_Charging_Adjusted_Penalty>
0.000282758

> <r_epik_Ionization_Penalty>
0.00028322

> <r_epik_Ionization_Penalty_Charging>
0.000282758

> <r_epik_Ionization_Penalty_Neutral>
4.61813e-07

> <r_epik_State_Penalty>
-0

> <r_lp_Energy>
28.9743

> <r_lp_tautomer_probability>
1

> <s_epik_cmdline>
J2VwaWtfcHl0aG9uJywgJy1waCcsICc3LjAnLCAnLXRuJywgJzgnLCAnLW1hJywgJzIwMCcsICctaW1hZScsICc8aW5maWxlLm1hZT4nLCAnLW9tYWUnLCAnPG91dGZpbGUubWFlPic=

> <s_epik_input>
Tz1DKFtPSF0pW0NASF0oW0NIMl0xKVtOSF1DKD1PKWMoW2NIXTIpYyhDbClbY0hdW2NIXWMyT1tDSDJdW0NIMl1bQ0gyXVtDSDJdT2MoW2NIXTMpW2NIXVtjSF1bY0hdYzEz

> <s_lp_Force_Field>
OPLS_2005

> <s_lp_Variant>
MCD00059-1

> <s_m_source_file>
MCD00059.smi

$$$$
MCD00060
                    3D
 Schrodinger Suite 2023-4.
 43 47  0  0  1  0            999 V2000
   -1.6579    0.6228   -3.4360 O   0  0  0  0  0  0
   -1.8450    0.5912   -2.2222 C   0  0  0  0  0  0
   -1.8332    1.7255   -1.4973 N   0  0  0  0  0  0
   -2.3063    1.9485   -0.1337 C   0  0  0  0  0  0
   -1.4695    3.0158    0.5951 C   0  0  0  0  0  0
   -0.2885    2.4597    1.1674 O   0  0  0  0  0  0
    0.8525    2.2947    0.4070 C   0  0  0  0  0  0
    1.1306    3.0395   -0.7666 C   0  0  0  0  0  0
    2.3199    2.8228   -1.4877 C   0  0  0  0  0  0
    2.5703    3.5407   -2.6080 F   0  0  0  0  0  0
    3.2494    1.8648   -1.0459 C   0  0  0  0  0  0
    2.9865    1.1200    0.1172 C   0  0  0  0  0  0
    1.7948    1.3281    0.8423 C   0  0  0  0  0  0
    1.5137    0.4679    2.0715 C   0  0  0  0  0  0
    1.4699   -0.9838    1.8605 N   0  0  0  0  0  0
    1.7762   -1.8170    3.0178 C   0  0  0  0  0  0
    1.7430   -3.3066    2.6628 C   0  0  0  0  0  0
    0.4296   -3.6772    2.2762 O   0  0  0  0  0  0
   -0.1519   -2.8349    1.3594 C   0  0  0  0  0  0
   -1.2614   -3.2709    0.6606 C   0  0  0  0  0  0
   -1.8098   -2.4407   -0.2684 N   0  0  0  0  0  0
   -2.9035   -2.7497   -1.0759 N   0  0  0  0  0  0
   -3.0507   -1.6859   -1.8545 C   0  0  0  0  0  0
   -2.0897   -0.7081   -1.5290 C   0  0  0  0  0  0
   -1.2834   -1.1906   -0.5026 C   0  0  0  0  0  0
   -0.2202   -0.6945    0.1476 N   0  0  0  0  0  0
    0.3582   -1.4637    1.0957 C   0  0  0  0  0  0
   -1.5967    2.5649   -2.0065 H   0  0  0  0  0  0
   -3.3322    2.3073   -0.2191 H   0  0  0  0  0  0
   -2.3589    1.0426    0.4672 H   0  0  0  0  0  0
   -1.3013    3.9026   -0.0133 H   0  0  0  0  0  0
   -2.0576    3.3719    1.4410 H   0  0  0  0  0  0
    0.4528    3.7908   -1.1379 H   0  0  0  0  0  0
    4.1613    1.6985   -1.6001 H   0  0  0  0  0  0
    3.6982    0.3778    0.4478 H   0  0  0  0  0  0
    2.2988    0.6856    2.7964 H   0  0  0  0  0  0
    0.5838    0.7669    2.5544 H   0  0  0  0  0  0
    2.7668   -1.5529    3.3890 H   0  0  0  0  0  0
    1.0678   -1.6029    3.8190 H   0  0  0  0  0  0
    2.4467   -3.5350    1.8608 H   0  0  0  0  0  0
    2.0344   -3.9057    3.5256 H   0  0  0  0  0  0
   -1.7113   -4.2496    0.7918 H   0  0  0  0  0  0
   -3.8147   -1.6583   -2.6176 H   0  0  0  0  0  0
  1  2  2  0  0  0
  2  3  1  0  0  0
  2 24  1  0  0  0
  3  4  1  0  0  0
  3 28  1  0  0  0
  4  5  1  0  0  0
  4 29  1  0  0  0
  4 30  1  0  0  0
  5  6  1  0  0  0
  5 31  1  0  0  0
  5 32  1  0  0  0
  6  7  1  0  0  0
  7  8  2  0  0  0
  7 13  1  0  0  0
  8  9  1  0  0  0
  8 33  1  0  0  0
  9 10  1  0  0  0
  9 11  2  0  0  0
 11 12  1  0  0  0
 11 34  1  0  0  0
 12 13  2  0  0  0
 12 35  1  0  0  0
 13 14  1  0  0  0
 14 15  1  0  0  0
 14 36  1  0  0  0
 14 37  1  0  0  0
 15 16  1  0  0  0
 15 27  1  0  0  0
 16 17  1  0  0  0
 16 38  1  0  0  0
 16 39  1  0  0  0
 17 18  1  0  0  0
 17 40  1  0  0  0
 17 41  1  0  0  0
 18 19  1  0  0  0
 19 20  2  0  0  0
 19 27  1  0  0  0
 20 21  1  0  0  0
 20 42  1  0  0  0
 21 22  1  0  0  0
 21 25  1  0  0  0
 22 23  2  0  0  0
 23 24  1  0  0  0
 23 43  1  0  0  0
 24 25  2  0  0  0
 25 26  1  0  0  0
 26 27  2  0  0  0
M  END
> <i_epik_Tot_Q>
0

> <i_epik_Tot_abs_Q>
0

> <i_f3d_flags>
0

> <i_lp_mmshare_version>
64135

> <i_m_source_file_index>
1

> <b_lp_Chiralities_Consistent>
1

> <r_epik_Charging_Adjusted_Penalty>
0

> <r_epik_Ionization_Penalty>
9.56363e-06

> <r_epik_Ionization_Penalty_Charging>
0

> <r_epik_Ionization_Penalty_Neutral>
9.56363e-06

> <r_epik_State_Penalty>
-0

> <r_lp_Energy>
53.6957

> <r_lp_tautomer_probability>
1

> <s_epik_cmdline>
J2VwaWtfcHl0aG9uJywgJy1waCcsICc3LjAnLCAnLXRuJywgJzgnLCAnLW1hJywgJzIwMCcsICctaW1hZScsICc8aW5maWxlLm1hZT4nLCAnLW9tYWUnLCAnPG91dGZpbGUubWFlPic=

> <s_epik_input>
TzFbQ0gyXVtDSDJdW05IXUMoPU8pYyhbY0hdbjIpYyhuMyluMltjSF1jKE9bQ0gyXVtDSDJdNCljM040W0NIMl1jKGMxNSlbY0hdW2NIXWMoRilbY0hdNQ==

> <s_lp_Force_Field>
OPLS_2005

> <s_lp_Variant>
MCD00060-1

> <s_m_source_file>
MCD00060.smi

$$$$
MCD00061
                    3D
 Schrodinger Suite 2023-4.
 48 52  0  0  1  0            999 V2000
   -0.3878   -2.7848   -2.8158 O   0  0  0  0  0  0
   -0.8502   -3.6369   -2.0558 C   0  0  0  0  0  0
   -1.6366   -4.7196   -2.4108 N   0  0  0  0  0  0
   -2.1394   -4.9480   -3.7614 C   0  0  0  0  0  0
   -3.4497   -4.1794   -4.0169 C   0  0  0  0  0  0
   -4.5909   -4.5992   -3.0684 C   0  0  0  0  0  0
   -5.7472   -3.7797   -3.2173 O   0  0  0  0  0  0
   -5.8656   -2.6611   -2.4179 C   0  0  0  0  0  0
   -7.1615   -2.1385   -2.2428 C   0  0  0  0  0  0
   -7.3699   -1.0203   -1.4174 C   0  0  0  0  0  0
   -6.3014   -0.4191   -0.7817 C   0  0  0  0  0  0
   -6.2172    0.6620    0.0594 N   0  0  0  0  0  0
   -4.9520    0.9498    0.4547 N   0  0  0  0  0  0
   -4.2890    0.0104   -0.1720 C   0  0  0  0  0  0
   -5.0174   -0.9094   -0.9636 C   0  0  0  0  0  0
   -4.7632   -2.0315   -1.7833 C   0  0  0  0  0  0
   -2.8217   -0.0114   -0.0478 C   0  0  0  0  0  0
   -2.0854    1.1925   -0.0174 C   0  0  0  0  0  0
   -0.6801    1.1697    0.0396 C   0  0  0  0  0  0
    0.0250   -0.0520    0.0460 C   0  0  0  0  0  0
    1.5263   -0.0331    0.0805 C   0  0  0  0  0  0
    2.2857    0.8921    1.0057 C   0  0  0  0  0  0
    2.2897   -0.5958    1.2578 C   0  0  0  0  0  0
   -0.7038   -1.2658   -0.0037 C   0  0  0  0  0  0
   -2.1162   -1.2330   -0.0061 C   0  0  0  0  0  0
    0.0232   -2.6086   -0.0577 C   0  0  0  0  0  0
   -0.7034   -3.6424   -0.7162 O   0  0  0  0  0  0
   -1.9351   -5.3296   -1.6633 H   0  0  0  0  0  0
   -1.3853   -4.6644   -4.4973 H   0  0  0  0  0  0
   -2.3064   -6.0180   -3.8882 H   0  0  0  0  0  0
   -3.2573   -3.1099   -3.9397 H   0  0  0  0  0  0
   -3.7680   -4.3438   -5.0467 H   0  0  0  0  0  0
   -4.8830   -5.6225   -3.3048 H   0  0  0  0  0  0
   -4.2709   -4.6279   -2.0258 H   0  0  0  0  0  0
   -8.0023   -2.6082   -2.7319 H   0  0  0  0  0  0
   -8.3682   -0.6312   -1.2810 H   0  0  0  0  0  0
   -6.9992    1.2208    0.3692 H   0  0  0  0  0  0
   -3.7528   -2.3827   -1.9111 H   0  0  0  0  0  0
   -2.5933    2.1453   -0.0511 H   0  0  0  0  0  0
   -0.1394    2.1046    0.0601 H   0  0  0  0  0  0
    1.9377   -0.1963   -0.9138 H   0  0  0  0  0  0
    3.2113    1.3301    0.6384 H   0  0  0  0  0  0
    1.7199    1.5088    1.7012 H   0  0  0  0  0  0
    3.2175   -1.1269    1.0550 H   0  0  0  0  0  0
    1.7179   -0.9588    2.1098 H   0  0  0  0  0  0
   -2.6640   -2.1627   -0.0039 H   0  0  0  0  0  0
    0.9936   -2.4962   -0.5424 H   0  0  0  0  0  0
    0.2210   -2.9297    0.9648 H   0  0  0  0  0  0
  1  2  2  0  0  0
  2  3  1  0  0  0
  2 27  1  0  0  0
  3  4  1  0  0  0
  3 28  1  0  0  0
  4  5  1  0  0  0
  4 29  1  0  0  0
  4 30  1  0  0  0
  5  6  1  0  0  0
  5 31  1  0  0  0
  5 32  1  0  0  0
  6  7  1  0  0  0
  6 33  1  0  0  0
  6 34  1  0  0  0
  7  8  1  0  0  0
  8  9  2  0  0  0
  8 16  1  0  0  0
  9 10  1  0  0  0
  9 35  1  0  0  0
 10 11  2  0  0  0
 10 36  1  0  0  0
 11 12  1  0  0  0
 11 15  1  0  0  0
 12 13  1  0  0  0
 12 37  1  0  0  0
 13 14  2  0  0  0
 14 15  1  0  0  0
 14 17  1  0  0  0
 15 16  2  0  0  0
 16 38  1  0  0  0
 17 18  2  0  0  0
 17 25  1  0  0  0
 18 19  1  0  0  0
 18 39  1  0  0  0
 19 20  2  0  0  0
 19 40  1  0  0  0
 20 21  1  0  0  0
 20 24  1  0  0  0
 21 22  1  0  0  0
 21 23  1  0  0  0
 21 41  1  0  0  0
 22 23  1  0  0  0
 22 42  1  0  0  0
 22 43  1  0  0  0
 23 44  1  0  0  0
 23 45  1  0  0  0
 24 25  2  0  0  0
 24 26  1  0  0  0
 25 46  1  0  0  0
 26 27  1  0  0  0
 26 47  1  0  0  0
 26 48  1  0  0  0
M  END
> <i_epik_Tot_Q>
0

> <i_epik_Tot_abs_Q>
0

> <i_f3d_flags>
0

> <i_lp_mmshare_version>
64135

> <i_m_source_file_index>
1

> <b_lp_Chiralities_Consistent>
1

> <r_epik_Charging_Adjusted_Penalty>
0.0117328

> <r_epik_Ionization_Penalty>
1.34138e-05

> <r_epik_Ionization_Penalty_Charging>
0

> <r_epik_Ionization_Penalty_Neutral>
1.34138e-05

> <r_epik_State_Penalty>
0.0117328

> <r_lp_Energy>
36.3732

> <r_lp_tautomer_probability>
0.980392

> <s_epik_Chemistry_Notes>
This compound has an ester and may undergo hydrolysis at high or low pH.

> <s_epik_cmdline>
J2VwaWtfcHl0aG9uJywgJy1waCcsICc3LjAnLCAnLXRuJywgJzgnLCAnLW1hJywgJzIwMCcsICctaW1hZScsICc8aW5maWxlLm1hZT4nLCAnLW9tYWUnLCAnPG91dGZpbGUubWFlPic=

> <s_epik_input>
TzFbQ0gyXVtDSDJdW0NIMl1bTkhdQyg9TylPW0NIMl1jKFtjSF0yKWMoW0NIXTNbQ0gyXVtDSDJdMylbY0hdW2NIXWMyYyhuW25IXTQpYyhbY0hdNSljNFtjSF1bY0hdYzE1

> <s_lp_Force_Field>
OPLS_2005

> <s_lp_Variant>
MCD00061-1

> <s_m_source_file>
MCD00061.smi

$$$$
MCD00061
                    3D
 Schrodinger Suite 2023-4.
 48 52  0  0  1  0            999 V2000
   -0.3917   -2.7083    2.8752 O   0  0  0  0  0  0
   -0.8560   -3.5734    2.1313 C   0  0  0  0  0  0
   -1.6692   -4.6305    2.5020 N   0  0  0  0  0  0
   -2.2044   -4.8065    3.8475 C   0  0  0  0  0  0
   -3.5072   -4.0094    4.0494 C   0  0  0  0  0  0
   -4.6348   -4.4424    3.0910 C   0  0  0  0  0  0
   -5.7946   -3.6229    3.2139 O   0  0  0  0  0  0
   -5.9094   -2.5182    2.3946 C   0  0  0  0  0  0
   -7.2165   -2.0032    2.2052 C   0  0  0  0  0  0
   -7.4582   -0.8930    1.3656 C   0  0  0  0  0  0
   -6.3777   -0.2790    0.7080 C   0  0  0  0  0  0
   -6.4089    0.7849   -0.1146 N   0  0  0  0  0  0
   -5.0818    0.9588   -0.4281 N   0  0  0  0  0  0
   -4.2762    0.0141    0.1913 C   0  0  0  0  0  0
   -5.1206   -0.8081    0.9401 C   0  0  0  0  0  0
   -4.7956   -1.9019    1.7602 C   0  0  0  0  0  0
   -2.8189   -0.0141    0.0657 C   0  0  0  0  0  0
   -2.0897    1.1903   -0.0083 C   0  0  0  0  0  0
   -0.6844    1.1749   -0.0744 C   0  0  0  0  0  0
    0.0282   -0.0424   -0.0518 C   0  0  0  0  0  0
    1.5293   -0.0163   -0.0891 C   0  0  0  0  0  0
    2.2960   -0.6104   -1.2490 C   0  0  0  0  0  0
    2.2817    0.8846   -1.0431 C   0  0  0  0  0  0
   -0.6943   -1.2580    0.0292 C   0  0  0  0  0  0
   -2.1066   -1.2312    0.0375 C   0  0  0  0  0  0
    0.0377   -2.5964    0.1163 C   0  0  0  0  0  0
   -0.6902   -3.6168    0.7944 O   0  0  0  0  0  0
   -1.9678   -5.2549    1.7666 H   0  0  0  0  0  0
   -2.3913   -5.8692    4.0051 H   0  0  0  0  0  0
   -1.4618   -4.5108    4.5901 H   0  0  0  0  0  0
   -3.8490   -4.1367    5.0770 H   0  0  0  0  0  0
   -3.2968   -2.9459    3.9421 H   0  0  0  0  0  0
   -4.2993   -4.4857    2.0539 H   0  0  0  0  0  0
   -4.9307   -5.4621    3.3385 H   0  0  0  0  0  0
   -8.0495   -2.4770    2.7034 H   0  0  0  0  0  0
   -8.4627   -0.5197    1.2313 H   0  0  0  0  0  0
   -4.7663    1.7004   -1.0369 H   0  0  0  0  0  0
   -3.7807   -2.2356    1.8953 H   0  0  0  0  0  0
   -2.6054    2.1394    0.0027 H   0  0  0  0  0  0
   -0.1495    2.1120   -0.1232 H   0  0  0  0  0  0
    1.9427   -0.1450    0.9096 H   0  0  0  0  0  0
    3.2277   -1.1281   -1.0304 H   0  0  0  0  0  0
    1.7267   -1.0039   -2.0890 H   0  0  0  0  0  0
    3.2044    1.3401   -0.6895 H   0  0  0  0  0  0
    1.7111    1.4757   -1.7569 H   0  0  0  0  0  0
   -2.6506   -2.1629    0.0540 H   0  0  0  0  0  0
    0.2421   -2.9404   -0.8975 H   0  0  0  0  0  0
    1.0046   -2.4691    0.6042 H   0  0  0  0  0  0
  1  2  2  0  0  0
  2  3  1  0  0  0
  2 27  1  0  0  0
  3  4  1  0  0  0
  3 28  1  0  0  0
  4  5  1  0  0  0
  4 29  1  0  0  0
  4 30  1  0  0  0
  5  6  1  0  0  0
  5 31  1  0  0  0
  5 32  1  0  0  0
  6  7  1  0  0  0
  6 33  1  0  0  0
  6 34  1  0  0  0
  7  8  1  0  0  0
  8  9  1  0  0  0
  8 16  2  0  0  0
  9 10  2  0  0  0
  9 35  1  0  0  0
 10 11  1  0  0  0
 10 36  1  0  0  0
 11 12  2  0  0  0
 11 15  1  0  0  0
 12 13  1  0  0  0
 13 37  1  0  0  0
 13 14  1  0  0  0
 14 15  2  0  0  0
 14 17  1  0  0  0
 15 16  1  0  0  0
 16 38  1  0  0  0
 17 18  2  0  0  0
 17 25  1  0  0  0
 18 19  1  0  0  0
 18 39  1  0  0  0
 19 20  2  0  0  0
 19 40  1  0  0  0
 20 21  1  0  0  0
 20 24  1  0  0  0
 21 22  1  0  0  0
 21 23  1  0  0  0
 21 41  1  0  0  0
 22 23  1  0  0  0
 22 42  1  0  0  0
 22 43  1  0  0  0
 23 44  1  0  0  0
 23 45  1  0  0  0
 24 25  2  0  0  0
 24 26  1  0  0  0
 25 46  1  0  0  0
 26 27  1  0  0  0
 26 47  1  0  0  0
 26 48  1  0  0  0
M  END
> <i_epik_Tot_Q>
0

> <i_epik_Tot_abs_Q>
0

> <i_f3d_flags>
0

> <i_lp_mmshare_version>
64135

> <i_m_source_file_index>
1

> <b_lp_Chiralities_Consistent>
1

> <r_epik_Charging_Adjusted_Penalty>
2.32955

> <r_epik_Ionization_Penalty>
3.15291e-05

> <r_epik_Ionization_Penalty_Charging>
0

> <r_epik_Ionization_Penalty_Neutral>
3.15291e-05

> <r_epik_State_Penalty>
2.32955

> <r_lp_Energy>
41.2447

> <r_lp_tautomer_probability>
0.0196078

> <s_epik_Chemistry_Notes>
This compound has an ester and may undergo hydrolysis at high or low pH.

> <s_epik_cmdline>
J2VwaWtfcHl0aG9uJywgJy1waCcsICc3LjAnLCAnLXRuJywgJzgnLCAnLW1hJywgJzIwMCcsICctaW1hZScsICc8aW5maWxlLm1hZT4nLCAnLW9tYWUnLCAnPG91dGZpbGUubWFlPic=

> <s_epik_input>
TzFbQ0gyXVtDSDJdW0NIMl1bTkhdQyg9TylPW0NIMl1jKFtjSF0yKWMoW0NIXTNbQ0gyXVtDSDJdMylbY0hdW2NIXWMyYyhuW25IXTQpYyhbY0hdNSljNFtjSF1bY0hdYzE1

> <s_lp_Force_Field>
OPLS_2005

> <s_lp_Variant>
MCD00061-2

> <s_m_source_file>
MCD00061.smi

$$$$
MCD00062
                    3D
 Schrodinger Suite 2023-4.
 54 58  0  0  1  0            999 V2000
    1.0234   -4.0343   -1.9019 C   0  0  0  0  0  0
    2.3179   -3.4998   -1.7926 C   0  0  0  0  0  0
    2.6143   -2.4627   -0.8903 C   0  0  0  0  0  0
    1.5381   -1.9931   -0.0999 C   0  0  0  0  0  0
    0.2203   -2.5316   -0.1829 C   0  0  0  0  0  0
   -0.0440   -3.5677   -1.1109 C   0  0  0  0  0  0
   -0.8431   -2.0466    0.6236 C   0  0  0  0  0  0
   -0.5065   -1.0652    1.5748 C   0  0  0  0  0  0
    0.7946   -0.5553    1.6459 C   0  0  0  0  0  0
    1.7580   -0.9665    0.7885 N   0  3  0  0  0  0
    3.0602   -0.2380    0.8641 C   0  0  0  0  0  0
    3.3354    0.6538   -0.3755 C   0  0  0  0  0  0
    2.6838    2.0578   -0.3978 C   0  0  0  0  0  0
    1.1959    2.0174   -0.4819 N   0  3  0  0  0  0
    0.6985    1.5662   -1.6609 C   0  0  0  0  0  0
   -0.6803    1.4147   -1.8661 C   0  0  0  0  0  0
   -1.5769    1.7293   -0.8266 C   0  0  0  0  0  0
   -1.0491    2.2577    0.3818 C   0  0  0  0  0  0
   -1.9176    2.6187    1.4423 C   0  0  0  0  0  0
   -1.4114    3.1206    2.6516 C   0  0  0  0  0  0
   -0.0274    3.2657    2.8193 C   0  0  0  0  0  0
    0.8507    2.9093    1.7811 C   0  0  0  0  0  0
    0.3653    2.4027    0.5439 C   0  0  0  0  0  0
   -2.9592    1.5073   -0.9710 N   0  0  0  0  0  0
   -3.4671    0.3944   -1.7715 C   0  0  0  0  0  0
   -2.8654   -0.9771   -1.3999 C   0  0  0  0  0  0
   -3.0819   -1.3961    0.0699 C   0  0  0  0  0  0
   -2.1745   -2.4676    0.4695 N   0  0  0  0  0  0
    0.8427   -4.8293   -2.6110 H   0  0  0  0  0  0
    3.1048   -3.8952   -2.4182 H   0  0  0  0  0  0
    3.6236   -2.0856   -0.8406 H   0  0  0  0  0  0
   -1.0223   -4.0107   -1.2255 H   0  0  0  0  0  0
   -1.2598   -0.6744    2.2436 H   0  0  0  0  0  0
    1.0578    0.2182    2.3514 H   0  0  0  0  0  0
    3.0910    0.3658    1.7720 H   0  0  0  0  0  0
    3.8407   -0.9872    0.9978 H   0  0  0  0  0  0
    4.4133    0.8124   -0.4193 H   0  0  0  0  0  0
    3.0998    0.1272   -1.2989 H   0  0  0  0  0  0
    3.0345    2.6672    0.4261 H   0  0  0  0  0  0
    3.0190    2.5916   -1.2888 H   0  0  0  0  0  0
    1.4193    1.3114   -2.4249 H   0  0  0  0  0  0
   -1.0328    1.0362   -2.8143 H   0  0  0  0  0  0
   -2.9888    2.5188    1.3504 H   0  0  0  0  0  0
   -2.0854    3.3924    3.4512 H   0  0  0  0  0  0
    0.3647    3.6475    3.7509 H   0  0  0  0  0  0
    1.8961    3.0372    2.0008 H   0  0  0  0  0  0
   -3.5475    1.7955   -0.2021 H   0  0  0  0  0  0
   -4.5492    0.3595   -1.6424 H   0  0  0  0  0  0
   -3.2953    0.6058   -2.8272 H   0  0  0  0  0  0
   -3.2958   -1.7412   -2.0478 H   0  0  0  0  0  0
   -1.8042   -0.9738   -1.6421 H   0  0  0  0  0  0
   -2.9593   -0.5437    0.7374 H   0  0  0  0  0  0
   -4.1087   -1.7365    0.2071 H   0  0  0  0  0  0
   -2.2835   -3.3057   -0.0838 H   0  0  0  0  0  0
  1  2  2  0  0  0
  1  6  1  0  0  0
  1 29  1  0  0  0
  2  3  1  0  0  0
  2 30  1  0  0  0
  3  4  2  0  0  0
  3 31  1  0  0  0
  4  5  1  0  0  0
  4 10  1  0  0  0
  5  6  2  0  0  0
  5  7  1  0  0  0
  6 32  1  0  0  0
  7  8  2  0  0  0
  7 28  1  0  0  0
  8  9  1  0  0  0
  8 33  1  0  0  0
  9 10  2  0  0  0
  9 34  1  0  0  0
 10 11  1  0  0  0
 11 12  1  0  0  0
 11 35  1  0  0  0
 11 36  1  0  0  0
 12 13  1  0  0  0
 12 37  1  0  0  0
 12 38  1  0  0  0
 13 14  1  0  0  0
 13 39  1  0  0  0
 13 40  1  0  0  0
 14 15  2  0  0  0
 14 23  1  0  0  0
 15 16  1  0  0  0
 15 41  1  0  0  0
 16 17  2  0  0  0
 16 42  1  0  0  0
 17 18  1  0  0  0
 17 24  1  0  0  0
 18 19  2  0  0  0
 18 23  1  0  0  0
 19 20  1  0  0  0
 19 43  1  0  0  0
 20 21  2  0  0  0
 20 44  1  0  0  0
 21 22  1  0  0  0
 21 45  1  0  0  0
 22 23  2  0  0  0
 22 46  1  0  0  0
 24 25  1  0  0  0
 24 47  1  0  0  0
 25 26  1  0  0  0
 25 48  1  0  0  0
 25 49  1  0  0  0
 26 27  1  0  0  0
 26 50  1  0  0  0
 26 51  1  0  0  0
 27 28  1  0  0  0
 27 52  1  0  0  0
 27 53  1  0  0  0
 28 54  1  0  0  0
M  CHG  2  10   1  14   1
M  END
> <i_epik_Tot_Q>
2

> <i_epik_Tot_abs_Q>
2

> <i_f3d_flags>
0

> <i_lp_mmshare_version>
64135

> <i_m_source_file_index>
1

> <b_lp_Chiralities_Consistent>
1

> <r_epik_Charging_Adjusted_Penalty>
0

> <r_epik_Ionization_Penalty>
8.39401e-07

> <r_epik_Ionization_Penalty_Charging>
0

> <r_epik_Ionization_Penalty_Neutral>
8.39401e-07

> <r_epik_State_Penalty>
-0

> <r_lp_Energy>
66.9191

> <r_lp_tautomer_probability>
1

> <s_epik_cmdline>
J2VwaWtfcHl0aG9uJywgJy1waCcsICc3LjAnLCAnLXRuJywgJzgnLCAnLW1hJywgJzIwMCcsICctaW1hZScsICc8aW5maWxlLm1hZT4nLCAnLW9tYWUnLCAnPG91dGZpbGUubWFlPic=

> <s_epik_input>
W2NIXTFbY0hdW2NIXVtjSF1jKGMxMiljM1tjSF1bY0hdW24rXTJbQ0gyXVtDSDJdW0NIMl1bbitdNGM1YyhbY0hdW2NIXVtjSF1bY0hdNSljKFtjSF1bY0hdNClbTkhdW0NIMl1bQ0gyXVtDSDJdW05IXTM=

> <s_lp_Force_Field>
OPLS_2005

> <s_lp_Variant>
MCD00062-1

> <s_m_source_file>
MCD00062.smi

$$$$
MCD00063
                    3D
 Schrodinger Suite 2023-4.
 49 53  0  0  1  0            999 V2000
   -0.0782    0.1147    0.1115 C   0  0  0  0  0  0
    1.4560    0.0112   -0.0034 C   0  0  2  0  0  0
    1.9900    0.7591   -1.2348 C   0  0  0  0  0  0
    1.4920    0.1707   -2.4267 O   0  0  0  0  0  0
    1.6178   -1.1963   -2.4807 C   0  0  0  0  0  0
    1.4957   -1.8325   -3.7012 C   0  0  0  0  0  0
    1.6661   -3.1825   -3.7482 N   0  0  0  0  0  0
    1.6208   -3.9582   -4.9056 N   0  0  0  0  0  0
    1.9120   -5.1846   -4.4927 C   0  0  0  0  0  0
    2.1068   -5.1954   -3.0971 C   0  0  0  0  0  0
    1.9385   -3.9036   -2.6079 C   0  0  0  0  0  0
    2.0437   -3.3573   -1.3878 N   0  0  0  0  0  0
    1.8686   -2.0229   -1.2718 C   0  0  0  0  0  0
    1.9326   -1.3731    0.0040 N   0  0  0  0  0  0
    1.6279   -2.2064    1.1754 C   0  0  0  0  0  0
    2.5952   -3.3454    1.4872 C   0  0  0  0  0  0
    3.9473   -3.0446    1.7512 C   0  0  0  0  0  0
    4.8684   -4.0773    1.9997 C   0  0  0  0  0  0
    4.4381   -5.4159    1.9868 C   0  0  0  0  0  0
    3.0889   -5.7239    1.7287 C   0  0  0  0  0  0
    2.1507   -4.6925    1.4731 C   0  0  0  0  0  0
    0.8120   -4.9124    1.2129 O   0  0  0  0  0  0
    0.3388   -6.1758    0.7481 C   0  0  1  0  0  0
   -1.1464   -6.2023    1.1308 C   0  0  0  0  0  0
    0.5043   -6.2896   -0.7831 C   0  0  0  0  0  0
    1.8628   -6.6716   -1.1572 N   0  0  0  0  0  0
    2.5669   -6.3391   -2.2549 C   0  0  0  0  0  0
    3.5788   -6.9657   -2.5596 O   0  0  0  0  0  0
   -0.3985    1.1567    0.1024 H   0  0  0  0  0  0
   -0.4398   -0.3248    1.0410 H   0  0  0  0  0  0
   -0.5823   -0.3919   -0.7121 H   0  0  0  0  0  0
    1.8843    0.4928    0.8765 H   0  0  0  0  0  0
    1.6884    1.8063   -1.2068 H   0  0  0  0  0  0
    3.0811    0.7471   -1.2513 H   0  0  0  0  0  0
    1.3009   -1.3150   -4.6348 H   0  0  0  0  0  0
    1.9933   -6.0013   -5.1948 H   0  0  0  0  0  0
    1.6067   -1.5619    2.0548 H   0  0  0  0  0  0
    0.6103   -2.5801    1.0668 H   0  0  0  0  0  0
    4.2818   -2.0176    1.7523 H   0  0  0  0  0  0
    5.9041   -3.8429    2.1964 H   0  0  0  0  0  0
    5.1450   -6.2100    2.1769 H   0  0  0  0  0  0
    2.8061   -6.7638    1.7364 H   0  0  0  0  0  0
    0.8027   -7.0205    1.2539 H   0  0  0  0  0  0
   -1.6159   -7.1388    0.8285 H   0  0  0  0  0  0
   -1.6920   -5.3856    0.6567 H   0  0  0  0  0  0
   -1.2723   -6.1044    2.2094 H   0  0  0  0  0  0
   -0.1436   -7.0835   -1.1560 H   0  0  0  0  0  0
    0.1606   -5.3763   -1.2656 H   0  0  0  0  0  0
    2.2670   -7.4010   -0.5878 H   0  0  0  0  0  0
  1  2  1  0  0  0
  1 29  1  0  0  0
  1 30  1  0  0  0
  1 31  1  0  0  0
  2  3  1  0  0  0
  2 14  1  0  0  0
  2 32  1  0  0  0
  3  4  1  0  0  0
  3 33  1  0  0  0
  3 34  1  0  0  0
  4  5  1  0  0  0
  5  6  2  0  0  0
  5 13  1  0  0  0
  6  7  1  0  0  0
  6 35  1  0  0  0
  7  8  1  0  0  0
  7 11  1  0  0  0
  8  9  2  0  0  0
  9 10  1  0  0  0
  9 36  1  0  0  0
 10 11  2  0  0  0
 10 27  1  0  0  0
 11 12  1  0  0  0
 12 13  2  0  0  0
 13 14  1  0  0  0
 14 15  1  0  0  0
 15 16  1  0  0  0
 15 37  1  0  0  0
 15 38  1  0  0  0
 16 17  2  0  0  0
 16 21  1  0  0  0
 17 18  1  0  0  0
 17 39  1  0  0  0
 18 19  2  0  0  0
 18 40  1  0  0  0
 19 20  1  0  0  0
 19 41  1  0  0  0
 20 21  2  0  0  0
 20 42  1  0  0  0
 21 22  1  0  0  0
 22 23  1  0  0  0
 23 24  1  0  0  0
 23 25  1  0  0  0
 23 43  1  0  0  0
 24 44  1  0  0  0
 24 45  1  0  0  0
 24 46  1  0  0  0
 25 26  1  0  0  0
 25 47  1  0  0  0
 25 48  1  0  0  0
 26 27  1  0  0  0
 26 49  1  0  0  0
 27 28  2  0  0  0
M  END
> <i_epik_Tot_Q>
0

> <i_epik_Tot_abs_Q>
0

> <i_f3d_flags>
0

> <i_lp_mmshare_version>
64135

> <i_m_source_file_index>
1

> <b_lp_Chiralities_Consistent>
1

> <r_epik_Charging_Adjusted_Penalty>
0

> <r_epik_Ionization_Penalty>
7.52821e-06

> <r_epik_Ionization_Penalty_Charging>
0

> <r_epik_Ionization_Penalty_Neutral>
7.52821e-06

> <r_epik_State_Penalty>
-0

> <r_lp_Energy>
55.7498

> <r_lp_tautomer_probability>
1

> <s_epik_cmdline>
J2VwaWtfcHl0aG9uJywgJy1waCcsICc3LjAnLCAnLXRuJywgJzgnLCAnLW1hJywgJzIwMCcsICctaW1hZScsICc8aW5maWxlLm1hZT4nLCAnLW9tYWUnLCAnPG91dGZpbGUubWFlPic=

> <s_epik_input>
TzFbQ0gyXVtDQEBIXShbQ0gzXSlOKGMyYzEzKVtDSDJdYzRjKFtjSF1bY0hdW2NIXVtjSF00KU9bQ0BASF0oW0NIM10pW0NIMl1bTkhdQyg9TyljNWMobjIpbihbY0hdMyluW2NIXTU=

> <s_lp_Force_Field>
OPLS_2005

> <s_lp_Variant>
MCD00063-1

> <s_m_source_file>
MCD00063.smi

$$$$
MCD00064
                    3D
 Schrodinger Suite 2023-4.
 46 50  0  0  1  0            999 V2000
   -0.2135   -0.0686    0.0251 C   0  0  0  0  0  0
    1.3198   -0.0610   -0.1013 C   0  0  1  0  0  0
    1.9841    0.7767    1.0063 C   0  0  0  0  0  0
    1.7652    0.2047    2.2869 O   0  0  0  0  0  0
    1.9400   -1.1566    2.3570 C   0  0  0  0  0  0
    2.0506   -1.7506    3.5970 C   0  0  0  0  0  0
    2.2122   -3.0998    3.6544 N   0  0  0  0  0  0
    2.3205   -3.8352    4.8335 N   0  0  0  0  0  0
    2.4153   -5.0935    4.4291 C   0  0  0  0  0  0
    2.3973   -5.1521    3.0224 C   0  0  0  0  0  0
    2.2636   -3.8651    2.5078 C   0  0  0  0  0  0
    2.1439   -3.3645    1.2645 N   0  0  0  0  0  0
    1.9926   -2.0249    1.1545 C   0  0  0  0  0  0
    1.8594   -1.4205   -0.1286 N   0  0  0  0  0  0
    2.8588   -1.8339   -1.1209 C   0  0  0  0  0  0
    4.3135   -1.8157   -0.6581 C   0  0  0  0  0  0
    4.9687   -0.5749   -0.5162 C   0  0  0  0  0  0
    6.2837   -0.5133   -0.0247 C   0  0  0  0  0  0
    6.9527   -1.6982    0.3252 C   0  0  0  0  0  0
    8.2138   -1.6429    0.8151 F   0  0  0  0  0  0
    6.3180   -2.9432    0.1568 C   0  0  0  0  0  0
    4.9988   -3.0208   -0.3612 C   0  0  0  0  0  0
    4.3333   -4.2072   -0.6073 O   0  0  0  0  0  0
    4.9419   -5.4505   -0.2797 C   0  0  0  0  0  0
    4.6791   -5.8160    1.1910 C   0  0  0  0  0  0
    3.4239   -6.5544    1.3153 N   0  0  0  0  0  0
    2.4068   -6.3762    2.1766 C   0  0  0  0  0  0
    1.5099   -7.2105    2.2734 O   0  0  0  0  0  0
   -0.6119    0.9459   -0.0028 H   0  0  0  0  0  0
   -0.5441   -0.5273    0.9575 H   0  0  0  0  0  0
   -0.6692   -0.6231   -0.7957 H   0  0  0  0  0  0
    1.5615    0.4095   -1.0548 H   0  0  0  0  0  0
    3.0558    0.8751    0.8472 H   0  0  0  0  0  0
    1.5809    1.7896    1.0053 H   0  0  0  0  0  0
    2.0137   -1.2050    4.5343 H   0  0  0  0  0  0
    2.4824   -5.9023    5.1420 H   0  0  0  0  0  0
    2.5872   -2.8244   -1.4853 H   0  0  0  0  0  0
    2.7792   -1.1818   -1.9910 H   0  0  0  0  0  0
    4.4594    0.3392   -0.7810 H   0  0  0  0  0  0
    6.7745    0.4418    0.0908 H   0  0  0  0  0  0
    6.8766   -3.8225    0.4347 H   0  0  0  0  0  0
    4.5120   -6.2117   -0.9319 H   0  0  0  0  0  0
    6.0044   -5.4668   -0.5178 H   0  0  0  0  0  0
    5.4651   -6.4908    1.5302 H   0  0  0  0  0  0
    4.7392   -4.9386    1.8342 H   0  0  0  0  0  0
    3.3599   -7.3782    0.7347 H   0  0  0  0  0  0
  1  2  1  0  0  0
  1 29  1  0  0  0
  1 30  1  0  0  0
  1 31  1  0  0  0
  2  3  1  0  0  0
  2 14  1  0  0  0
  2 32  1  0  0  0
  3  4  1  0  0  0
  3 33  1  0  0  0
  3 34  1  0  0  0
  4  5  1  0  0  0
  5  6  2  0  0  0
  5 13  1  0  0  0
  6  7  1  0  0  0
  6 35  1  0  0  0
  7  8  1  0  0  0
  7 11  1  0  0  0
  8  9  2  0  0  0
  9 10  1  0  0  0
  9 36  1  0  0  0
 10 11  2  0  0  0
 10 27  1  0  0  0
 11 12  1  0  0  0
 12 13  2  0  0  0
 13 14  1  0  0  0
 14 15  1  0  0  0
 15 16  1  0  0  0
 15 37  1  0  0  0
 15 38  1  0  0  0
 16 17  2  0  0  0
 16 22  1  0  0  0
 17 18  1  0  0  0
 17 39  1  0  0  0
 18 19  2  0  0  0
 18 40  1  0  0  0
 19 20  1  0  0  0
 19 21  1  0  0  0
 21 22  2  0  0  0
 21 41  1  0  0  0
 22 23  1  0  0  0
 23 24  1  0  0  0
 24 25  1  0  0  0
 24 42  1  0  0  0
 24 43  1  0  0  0
 25 26  1  0  0  0
 25 44  1  0  0  0
 25 45  1  0  0  0
 26 27  1  0  0  0
 26 46  1  0  0  0
 27 28  2  0  0  0
M  END
> <i_epik_Tot_Q>
0

> <i_epik_Tot_abs_Q>
0

> <i_f3d_flags>
0

> <i_lp_mmshare_version>
64135

> <i_m_source_file_index>
1

> <b_lp_Chiralities_Consistent>
1

> <r_epik_Charging_Adjusted_Penalty>
0

> <r_epik_Ionization_Penalty>
8.80245e-06

> <r_epik_Ionization_Penalty_Charging>
0

> <r_epik_Ionization_Penalty_Neutral>
8.80245e-06

> <r_epik_State_Penalty>
-0

> <r_lp_Energy>
57.3885

> <r_lp_tautomer_probability>
1

> <s_epik_cmdline>
J2VwaWtfcHl0aG9uJywgJy1waCcsICc3LjAnLCAnLXRuJywgJzgnLCAnLW1hJywgJzIwMCcsICctaW1hZScsICc8aW5maWxlLm1hZT4nLCAnLW9tYWUnLCAnPG91dGZpbGUubWFlPic=

> <s_epik_input>
TzFbQ0gyXVtDQEhdKFtDSDNdKU4oYzJjMTMpW0NIMl1jNGMoW2NIXWMoRilbY0hdW2NIXTQpT1tDSDJdW0NIMl1bTkhdQyg9TyljNWMobjIpbihbY0hdMyluW2NIXTU=

> <s_lp_Force_Field>
OPLS_2005

> <s_lp_Variant>
MCD00064-1

> <s_m_source_file>
MCD00064.smi

$$$$
MCD00065
                    3D
 Schrodinger Suite 2023-4.
 46 50  0  0  1  0            999 V2000
    0.3472    0.0935    0.1518 C   0  0  0  0  0  0
    1.7631    0.1969   -0.4480 C   0  0  2  0  0  0
    1.7575    0.8316   -1.8488 C   0  0  0  0  0  0
    1.0640    0.0166   -2.7835 O   0  0  0  0  0  0
    1.3715   -1.3222   -2.7285 C   0  0  0  0  0  0
    0.9971   -2.1405   -3.7778 C   0  0  0  0  0  0
    1.3228   -3.4616   -3.7173 N   0  0  0  0  0  0
    1.0327   -4.4100   -4.6976 N   0  0  0  0  0  0
    1.5330   -5.5428   -4.2208 C   0  0  0  0  0  0
    2.1503   -5.3156   -2.9745 C   0  0  0  0  0  0
    1.9929   -3.9773   -2.6316 C   0  0  0  0  0  0
    2.3491   -3.2546   -1.5605 N   0  0  0  0  0  0
    2.0722   -1.9341   -1.5709 C   0  0  0  0  0  0
    2.4562   -1.0892   -0.4848 N   0  0  0  0  0  0
    2.8952   -1.7498    0.7502 C   0  0  0  0  0  0
    4.3882   -1.6253    1.0213 C   0  0  0  0  0  0
    4.8375   -0.5538    1.8221 C   0  0  0  0  0  0
    6.2037   -0.4088    2.1210 C   0  0  0  0  0  0
    7.1301   -1.3411    1.6235 C   0  0  0  0  0  0
    8.4452   -1.2113    1.9187 F   0  0  0  0  0  0
    6.6922   -2.4095    0.8188 C   0  0  0  0  0  0
    5.3188   -2.5587    0.4966 C   0  0  0  0  0  0
    4.8388   -3.5757   -0.3024 O   0  0  0  0  0  0
    5.7604   -4.3900   -1.0189 C   0  0  0  0  0  0
    5.0379   -5.1171   -2.1648 C   0  0  0  0  0  0
    4.0676   -6.0933   -1.6686 N   0  0  0  0  0  0
    2.8029   -6.3169   -2.0792 C   0  0  0  0  0  0
    2.1996   -7.3292   -1.7313 O   0  0  0  0  0  0
   -0.1326    1.0719    0.1813 H   0  0  0  0  0  0
    0.3689   -0.2855    1.1733 H   0  0  0  0  0  0
   -0.2928   -0.5683   -0.4325 H   0  0  0  0  0  0
    2.3478    0.8483    0.2024 H   0  0  0  0  0  0
    1.2838    1.8131   -1.8199 H   0  0  0  0  0  0
    2.7786    0.9881   -2.2005 H   0  0  0  0  0  0
    0.4705   -1.7896   -4.6592 H   0  0  0  0  0  0
    1.4414   -6.4662   -4.7738 H   0  0  0  0  0  0
    2.3746   -1.2849    1.5873 H   0  0  0  0  0  0
    2.6026   -2.7978    0.8079 H   0  0  0  0  0  0
    4.1297    0.1617    2.2147 H   0  0  0  0  0  0
    6.5393    0.4126    2.7369 H   0  0  0  0  0  0
    7.4339   -3.1075    0.4622 H   0  0  0  0  0  0
    6.5467   -3.7791   -1.4643 H   0  0  0  0  0  0
    6.2323   -5.1037   -0.3425 H   0  0  0  0  0  0
    4.6074   -4.3898   -2.8509 H   0  0  0  0  0  0
    5.7742   -5.6690   -2.7496 H   0  0  0  0  0  0
    4.4419   -6.7701   -1.0193 H   0  0  0  0  0  0
  1  2  1  0  0  0
  1 29  1  0  0  0
  1 30  1  0  0  0
  1 31  1  0  0  0
  2  3  1  0  0  0
  2 14  1  0  0  0
  2 32  1  0  0  0
  3  4  1  0  0  0
  3 33  1  0  0  0
  3 34  1  0  0  0
  4  5  1  0  0  0
  5  6  2  0  0  0
  5 13  1  0  0  0
  6  7  1  0  0  0
  6 35  1  0  0  0
  7  8  1  0  0  0
  7 11  1  0  0  0
  8  9  2  0  0  0
  9 10  1  0  0  0
  9 36  1  0  0  0
 10 11  2  0  0  0
 10 27  1  0  0  0
 11 12  1  0  0  0
 12 13  2  0  0  0
 13 14  1  0  0  0
 14 15  1  0  0  0
 15 16  1  0  0  0
 15 37  1  0  0  0
 15 38  1  0  0  0
 16 17  2  0  0  0
 16 22  1  0  0  0
 17 18  1  0  0  0
 17 39  1  0  0  0
 18 19  2  0  0  0
 18 40  1  0  0  0
 19 20  1  0  0  0
 19 21  1  0  0  0
 21 22  2  0  0  0
 21 41  1  0  0  0
 22 23  1  0  0  0
 23 24  1  0  0  0
 24 25  1  0  0  0
 24 42  1  0  0  0
 24 43  1  0  0  0
 25 26  1  0  0  0
 25 44  1  0  0  0
 25 45  1  0  0  0
 26 27  1  0  0  0
 26 46  1  0  0  0
 27 28  2  0  0  0
M  END
> <i_epik_Tot_Q>
0

> <i_epik_Tot_abs_Q>
0

> <i_f3d_flags>
0

> <i_lp_mmshare_version>
64135

> <i_m_source_file_index>
1

> <b_lp_Chiralities_Consistent>
1

> <r_epik_Charging_Adjusted_Penalty>
0

> <r_epik_Ionization_Penalty>
8.80245e-06

> <r_epik_Ionization_Penalty_Charging>
0

> <r_epik_Ionization_Penalty_Neutral>
8.80245e-06

> <r_epik_State_Penalty>
-0

> <r_lp_Energy>
55.4206

> <r_lp_tautomer_probability>
1

> <s_epik_cmdline>
J2VwaWtfcHl0aG9uJywgJy1waCcsICc3LjAnLCAnLXRuJywgJzgnLCAnLW1hJywgJzIwMCcsICctaW1hZScsICc8aW5maWxlLm1hZT4nLCAnLW9tYWUnLCAnPG91dGZpbGUubWFlPic=

> <s_epik_input>
TzFbQ0gyXVtDQEBIXShbQ0gzXSlOKGMyYzEzKVtDSDJdYzRjKFtjSF1jKEYpW2NIXVtjSF00KU9bQ0gyXVtDSDJdW05IXUMoPU8pYzVjKG4yKW4oW2NIXTMpbltjSF01

> <s_lp_Force_Field>
OPLS_2005

> <s_lp_Variant>
MCD00065-1

> <s_m_source_file>
MCD00065.smi

$$$$
MCD00066
                    3D
 Schrodinger Suite 2023-4.
 48 52  0  0  1  0            999 V2000
    0.7769    1.5512   -3.8808 O   0  0  0  0  0  0
    1.1634    0.6197   -3.1788 C   0  0  0  0  0  0
    0.7853   -0.6516   -3.4036 N   0  0  0  0  0  0
    1.0174   -1.8199   -2.5538 C   0  0  0  0  0  0
   -0.2810   -2.3005   -1.8891 C   0  0  0  0  0  0
   -0.7677   -1.3238   -0.9729 O   0  0  0  0  0  0
   -1.8945   -1.6249   -0.2292 C   0  0  0  0  0  0
   -2.5440   -2.8863   -0.2701 C   0  0  0  0  0  0
   -3.6853   -3.1353    0.5157 C   0  0  0  0  0  0
   -4.2890   -4.3463    0.4663 F   0  0  0  0  0  0
   -4.1998   -2.1287    1.3508 C   0  0  0  0  0  0
   -3.5719   -0.8720    1.3972 C   0  0  0  0  0  0
   -2.4248   -0.6177    0.6162 C   0  0  0  0  0  0
   -1.7830    0.7598    0.6766 C   0  0  0  0  0  0
   -0.4600    0.7823    1.3157 N   0  0  2  0  0  0
   -0.6179    0.5402    2.7605 C   0  0  0  0  0  0
    0.7099    0.2032    3.4676 C   0  0  0  0  0  0
    1.4430    1.4591    3.9847 C   0  0  0  0  0  0
    1.3689    2.5448    3.0693 O   0  0  0  0  0  0
    1.5628    2.1783    1.7703 C   0  0  0  0  0  0
    2.7830    1.8983    1.2676 C   0  0  0  0  0  0
    2.8368    1.4506   -0.0632 N   0  0  0  0  0  0
    3.9040    0.8580   -0.6779 N   0  0  0  0  0  0
    3.4430    0.4955   -1.8980 C   0  0  0  0  0  0
    2.0764    0.8809   -2.0213 C   0  0  0  0  0  0
    1.7582    1.5065   -0.8334 C   0  0  0  0  0  0
    0.5119    2.0633   -0.4714 N   0  0  0  0  0  0
    0.2617    2.0265    0.9746 C   0  0  1  0  0  0
    0.1931   -0.8074   -4.2066 H   0  0  0  0  0  0
    1.4063   -2.6138   -3.1918 H   0  0  0  0  0  0
    1.7759   -1.6556   -1.7899 H   0  0  0  0  0  0
   -1.0346   -2.5152   -2.6487 H   0  0  0  0  0  0
   -0.0638   -3.2290   -1.3595 H   0  0  0  0  0  0
   -2.1869   -3.6877   -0.8978 H   0  0  0  0  0  0
   -5.0761   -2.3188    1.9529 H   0  0  0  0  0  0
   -3.9738   -0.1007    2.0378 H   0  0  0  0  0  0
   -1.7359    1.1015   -0.3566 H   0  0  0  0  0  0
   -2.4456    1.4607    1.1868 H   0  0  0  0  0  0
   -1.1197    1.3812    3.2412 H   0  0  0  0  0  0
   -1.2677   -0.3228    2.9019 H   0  0  0  0  0  0
    0.5119   -0.4494    4.3183 H   0  0  0  0  0  0
    1.3516   -0.3751    2.8006 H   0  0  0  0  0  0
    0.9862    1.7903    4.9176 H   0  0  0  0  0  0
    2.4849    1.2292    4.2111 H   0  0  0  0  0  0
    3.7270    1.9271    1.7912 H   0  0  0  0  0  0
    4.0864   -0.0218   -2.5943 H   0  0  0  0  0  0
   -0.2696    1.9323   -1.0971 H   0  0  0  0  0  0
   -0.3725    2.8774    1.2276 H   0  0  0  0  0  0
  1  2  2  0  0  0
  2  3  1  0  0  0
  2 25  1  0  0  0
  3  4  1  0  0  0
  3 29  1  0  0  0
  4  5  1  0  0  0
  4 30  1  0  0  0
  4 31  1  0  0  0
  5  6  1  0  0  0
  5 32  1  0  0  0
  5 33  1  0  0  0
  6  7  1  0  0  0
  7  8  2  0  0  0
  7 13  1  0  0  0
  8  9  1  0  0  0
  8 34  1  0  0  0
  9 10  1  0  0  0
  9 11  2  0  0  0
 11 12  1  0  0  0
 11 35  1  0  0  0
 12 13  2  0  0  0
 12 36  1  0  0  0
 13 14  1  0  0  0
 14 15  1  0  0  0
 14 37  1  0  0  0
 14 38  1  0  0  0
 15 16  1  0  0  0
 15 28  1  0  0  0
 16 17  1  0  0  0
 16 39  1  0  0  0
 16 40  1  0  0  0
 17 18  1  0  0  0
 17 41  1  0  0  0
 17 42  1  0  0  0
 18 19  1  0  0  0
 18 43  1  0  0  0
 18 44  1  0  0  0
 19 20  1  0  0  0
 20 21  2  0  0  0
 20 28  1  0  0  0
 21 22  1  0  0  0
 21 45  1  0  0  0
 22 23  1  0  0  0
 22 26  1  0  0  0
 23 24  2  0  0  0
 24 25  1  0  0  0
 24 46  1  0  0  0
 25 26  2  0  0  0
 26 27  1  0  0  0
 27 28  1  0  0  0
 27 47  1  0  0  0
 28 48  1  0  0  0
M  END
> <i_epik_Tot_Q>
0

> <i_epik_Tot_abs_Q>
0

> <i_f3d_flags>
0

> <i_lp_mmshare_version>
64135

> <i_m_source_file_index>
1

> <b_lp_Chiralities_Consistent>
1

> <r_epik_Charging_Adjusted_Penalty>
0.0729999

> <r_epik_Ionization_Penalty>
0.067214

> <r_epik_Ionization_Penalty_Charging>
0

> <r_epik_Ionization_Penalty_Neutral>
0.067214

> <r_epik_State_Penalty>
0.0729999

> <r_lp_Energy>
68.7183

> <r_lp_tautomer_probability>
1

> <s_epik_Chemistry_Notes>
This compound contains an acetal/aminal-like group ( X-CH(R)-Y where X, Y are N, S, or O) that may be acid/base labile, releasing an aldehyde.

> <s_epik_cmdline>
J2VwaWtfcHl0aG9uJywgJy1waCcsICc3LjAnLCAnLXRuJywgJzgnLCAnLW1hJywgJzIwMCcsICctaW1hZScsICc8aW5maWxlLm1hZT4nLCAnLW9tYWUnLCAnPG91dGZpbGUubWFlPic=

> <s_epik_input>
TzFbQ0gyXVtDSDJdW05IXUMoPU8pYyhbY0hdbjIpYyhbTkhdMyluMltDSF09QyhPW0NIMl1bQ0gyXVtDSDJdNClbQ0BASF0zTjRbQ0gyXWMoYzE1KVtjSF1bY0hdYyhGKVtjSF01

> <s_lp_Force_Field>
OPLS_2005

> <s_lp_Variant>
MCD00066-1

> <s_m_source_file>
MCD00066.smi

$$$$
MCD00066
                    3D
 Schrodinger Suite 2023-4.
 48 52  0  0  1  0            999 V2000
    1.3313   -0.9366   -4.5694 O   0  0  0  0  0  0
    1.2862   -0.3194   -3.5076 C   0  0  0  0  0  0
    2.3648   -0.2434   -2.7086 N   0  0  0  0  0  0
    2.6200    0.5962   -1.5410 C   0  0  0  0  0  0
    3.3766   -0.2122   -0.4717 C   0  0  0  0  0  0
    2.4644   -0.7907    0.4575 O   0  0  0  0  0  0
    2.1212   -0.1266    1.6211 C   0  0  0  0  0  0
    2.8371    0.9780    2.1540 C   0  0  0  0  0  0
    2.4440    1.5747    3.3669 C   0  0  0  0  0  0
    3.1425    2.6248    3.8599 F   0  0  0  0  0  0
    1.3318    1.0814    4.0691 C   0  0  0  0  0  0
    0.6062   -0.0038    3.5493 C   0  0  0  0  0  0
    0.9900   -0.6028    2.3308 C   0  0  0  0  0  0
    0.1238   -1.7227    1.7680 C   0  0  0  0  0  0
   -1.2112   -1.2652    1.3706 N   0  0  2  0  0  0
   -2.0882   -2.3843    1.0131 C   0  0  0  0  0  0
   -3.5144   -2.1411    1.5403 C   0  0  0  0  0  0
   -4.2591   -1.0052    0.8254 C   0  0  0  0  0  0
   -3.5281    0.1998    0.9943 O   0  0  0  0  0  0
   -2.5766    0.3744    0.0307 C   0  0  0  0  0  0
   -2.8752    0.9060   -1.1701 C   0  0  0  0  0  0
   -1.8606    0.9167   -2.1424 N   0  0  0  0  0  0
   -1.9345    1.5154   -3.3670 N   0  0  0  0  0  0
   -0.7825    1.1767   -3.9865 C   0  0  0  0  0  0
    0.0101    0.3686   -3.1213 C   0  0  0  0  0  0
   -0.7339    0.2345   -1.9583 C   0  0  0  0  0  0
   -0.4414   -0.5802   -0.8395 N   0  0  0  0  0  0
   -1.1913   -0.1891    0.3624 C   0  0  2  0  0  0
    3.1662   -0.7707   -3.0242 H   0  0  0  0  0  0
    3.2579    1.4116   -1.8829 H   0  0  0  0  0  0
    1.7293    1.0668   -1.1274 H   0  0  0  0  0  0
    3.9193   -1.0329   -0.9427 H   0  0  0  0  0  0
    4.1630    0.3824   -0.0160 H   0  0  0  0  0  0
    3.7040    1.3970    1.6718 H   0  0  0  0  0  0
    1.0304    1.5402    4.9994 H   0  0  0  0  0  0
   -0.2608   -0.3687    4.0805 H   0  0  0  0  0  0
    0.6146   -2.2324    0.9389 H   0  0  0  0  0  0
    0.0174   -2.4685    2.5566 H   0  0  0  0  0  0
   -2.0815   -2.5715   -0.0614 H   0  0  0  0  0  0
   -1.7219   -3.2981    1.4822 H   0  0  0  0  0  0
   -4.0921   -3.0588    1.4279 H   0  0  0  0  0  0
   -3.4789   -1.9378    2.6115 H   0  0  0  0  0  0
   -4.4241   -1.2470   -0.2269 H   0  0  0  0  0  0
   -5.2452   -0.8738    1.2713 H   0  0  0  0  0  0
   -3.8275    1.3060   -1.4856 H   0  0  0  0  0  0
   -0.5975    1.4947   -5.0020 H   0  0  0  0  0  0
    0.5054   -0.9138   -0.7289 H   0  0  0  0  0  0
   -0.6514    0.6540    0.7937 H   0  0  0  0  0  0
  1  2  2  0  0  0
  2  3  1  0  0  0
  2 25  1  0  0  0
  3  4  1  0  0  0
  3 29  1  0  0  0
  4  5  1  0  0  0
  4 30  1  0  0  0
  4 31  1  0  0  0
  5  6  1  0  0  0
  5 32  1  0  0  0
  5 33  1  0  0  0
  6  7  1  0  0  0
  7  8  2  0  0  0
  7 13  1  0  0  0
  8  9  1  0  0  0
  8 34  1  0  0  0
  9 10  1  0  0  0
  9 11  2  0  0  0
 11 12  1  0  0  0
 11 35  1  0  0  0
 12 13  2  0  0  0
 12 36  1  0  0  0
 13 14  1  0  0  0
 14 15  1  0  0  0
 14 37  1  0  0  0
 14 38  1  0  0  0
 15 16  1  0  0  0
 15 28  1  0  0  0
 16 17  1  0  0  0
 16 39  1  0  0  0
 16 40  1  0  0  0
 17 18  1  0  0  0
 17 41  1  0  0  0
 17 42  1  0  0  0
 18 19  1  0  0  0
 18 43  1  0  0  0
 18 44  1  0  0  0
 19 20  1  0  0  0
 20 21  2  0  0  0
 20 28  1  0  0  0
 21 22  1  0  0  0
 21 45  1  0  0  0
 22 23  1  0  0  0
 22 26  1  0  0  0
 23 24  2  0  0  0
 24 25  1  0  0  0
 24 46  1  0  0  0
 25 26  2  0  0  0
 26 27  1  0  0  0
 27 28  1  0  0  0
 27 47  1  0  0  0
 28 48  1  0  0  0
M  END
> <i_epik_Tot_Q>
0

> <i_epik_Tot_abs_Q>
0

> <i_f3d_flags>
0

> <i_lp_mmshare_version>
64135

> <i_m_source_file_index>
1

> <b_lp_Chiralities_Consistent>
1

> <r_epik_Charging_Adjusted_Penalty>
0.0729999

> <r_epik_Ionization_Penalty>
0.067214

> <r_epik_Ionization_Penalty_Charging>
0

> <r_epik_Ionization_Penalty_Neutral>
0.067214

> <r_epik_State_Penalty>
0.0729999

> <r_lp_Energy>
69.5141

> <r_lp_tautomer_probability>
1

> <s_epik_Chemistry_Notes>
This compound contains an acetal/aminal-like group ( X-CH(R)-Y where X, Y are N, S, or O) that may be acid/base labile, releasing an aldehyde.

> <s_epik_cmdline>
J2VwaWtfcHl0aG9uJywgJy1waCcsICc3LjAnLCAnLXRuJywgJzgnLCAnLW1hJywgJzIwMCcsICctaW1hZScsICc8aW5maWxlLm1hZT4nLCAnLW9tYWUnLCAnPG91dGZpbGUubWFlPic=

> <s_epik_input>
TzFbQ0gyXVtDSDJdW05IXUMoPU8pYyhbY0hdbjIpYyhbTkhdMyluMltDSF09QyhPW0NIMl1bQ0gyXVtDSDJdNClbQ0BASF0zTjRbQ0gyXWMoYzE1KVtjSF1bY0hdYyhGKVtjSF01

> <s_lp_Force_Field>
OPLS_2005

> <s_lp_Variant>
MCD00066-2

> <s_m_source_file>
MCD00066.smi

$$$$
MCD00066
                    3D
 Schrodinger Suite 2023-4.
 49 53  0  0  1  0            999 V2000
    1.3544    4.3677    1.7109 O   0  0  0  0  0  0
    1.5823    3.2163    1.3490 C   0  0  0  0  0  0
    1.9527    2.9202    0.0893 N   0  0  0  0  0  0
    2.5256    1.6638   -0.3940 C   0  0  0  0  0  0
    1.9693    1.2652   -1.7664 C   0  0  0  0  0  0
    0.6328    0.7991   -1.6208 O   0  0  0  0  0  0
    0.0901    0.0342   -2.6349 C   0  0  0  0  0  0
    0.6908   -0.1122   -3.9113 C   0  0  0  0  0  0
    0.1014   -0.9326   -4.8916 C   0  0  0  0  0  0
    0.6898   -1.0661   -6.1034 F   0  0  0  0  0  0
   -1.0963   -1.6143   -4.6137 C   0  0  0  0  0  0
   -1.7108   -1.4657   -3.3576 C   0  0  0  0  0  0
   -1.1280   -0.6403   -2.3728 C   0  0  0  0  0  0
   -1.8276   -0.4690   -1.0341 C   0  0  0  0  0  0
   -1.0254   -1.0075    0.0963 N   0  3  2  0  0  0
   -0.9704   -2.4938    0.1431 C   0  0  0  0  0  0
   -2.2722   -3.1614    0.6226 C   0  0  0  0  0  0
   -2.8447   -2.5918    1.9317 C   0  0  0  0  0  0
   -1.8217   -2.2795    2.8727 O   0  0  0  0  0  0
   -1.0412   -1.1655    2.6438 C   0  0  0  0  0  0
   -0.0807   -0.8584    3.5373 C   0  0  0  0  0  0
    0.7083    0.2793    3.3072 N   0  0  0  0  0  0
    1.7669    0.6927    4.0674 N   0  0  0  0  0  0
    2.2111    1.8219    3.4674 C   0  0  0  0  0  0
    1.4188    2.0819    2.3139 C   0  0  0  0  0  0
    0.4660    1.0803    2.2803 C   0  0  0  0  0  0
   -0.5998    0.9671    1.3638 N   0  0  0  0  0  0
   -1.3182   -0.3101    1.3835 C   0  0  1  0  0  0
    1.9888    3.6931   -0.5600 H   0  0  0  0  0  0
    3.6012    1.8206   -0.4810 H   0  0  0  0  0  0
    2.4001    0.8330    0.2996 H   0  0  0  0  0  0
    2.0113    2.1003   -2.4670 H   0  0  0  0  0  0
    2.6060    0.4691   -2.1557 H   0  0  0  0  0  0
    1.6075    0.3980   -4.1655 H   0  0  0  0  0  0
   -1.5472   -2.2449   -5.3659 H   0  0  0  0  0  0
   -2.6369   -1.9843   -3.1565 H   0  0  0  0  0  0
   -1.9969    0.6008   -0.9046 H   0  0  0  0  0  0
   -2.8181   -0.9249   -1.0480 H   0  0  0  0  0  0
   -0.7069   -2.8810   -0.8415 H   0  0  0  0  0  0
   -0.1433   -2.7933    0.7879 H   0  0  0  0  0  0
   -3.0351   -3.1105   -0.1546 H   0  0  0  0  0  0
   -2.0676   -4.2233    0.7630 H   0  0  0  0  0  0
   -3.5042   -1.7438    1.7509 H   0  0  0  0  0  0
   -3.4890   -3.3454    2.3852 H   0  0  0  0  0  0
    0.1641   -1.4123    4.4319 H   0  0  0  0  0  0
    3.0562    2.3612    3.8693 H   0  0  0  0  0  0
   -0.6947    1.6073    0.5880 H   0  0  0  0  0  0
   -2.3711   -0.0320    1.4042 H   0  0  0  0  0  0
   -0.0752   -0.7374   -0.1145 H   0  0  0  0  0  0
  1  2  2  0  0  0
  2  3  1  0  0  0
  2 25  1  0  0  0
  3  4  1  0  0  0
  3 29  1  0  0  0
  4  5  1  0  0  0
  4 30  1  0  0  0
  4 31  1  0  0  0
  5  6  1  0  0  0
  5 32  1  0  0  0
  5 33  1  0  0  0
  6  7  1  0  0  0
  7  8  2  0  0  0
  7 13  1  0  0  0
  8  9  1  0  0  0
  8 34  1  0  0  0
  9 10  1  0  0  0
  9 11  2  0  0  0
 11 12  1  0  0  0
 11 35  1  0  0  0
 12 13  2  0  0  0
 12 36  1  0  0  0
 13 14  1  0  0  0
 14 15  1  0  0  0
 14 37  1  0  0  0
 14 38  1  0  0  0
 15 16  1  0  0  0
 15 28  1  0  0  0
 15 49  1  0  0  0
 16 17  1  0  0  0
 16 39  1  0  0  0
 16 40  1  0  0  0
 17 18  1  0  0  0
 17 41  1  0  0  0
 17 42  1  0  0  0
 18 19  1  0  0  0
 18 43  1  0  0  0
 18 44  1  0  0  0
 19 20  1  0  0  0
 20 21  2  0  0  0
 20 28  1  0  0  0
 21 22  1  0  0  0
 21 45  1  0  0  0
 22 23  1  0  0  0
 22 26  1  0  0  0
 23 24  2  0  0  0
 24 25  1  0  0  0
 24 46  1  0  0  0
 25 26  2  0  0  0
 26 27  1  0  0  0
 27 28  1  0  0  0
 27 47  1  0  0  0
 28 48  1  0  0  0
M  CHG  1  15   1
M  END
> <i_epik_Tot_Q>
1

> <i_epik_Tot_abs_Q>
1

> <i_f3d_flags>
0

> <i_lp_mmshare_version>
64135

> <i_m_source_file_index>
1

> <b_lp_Chiralities_Consistent>
1

> <r_epik_Charging_Adjusted_Penalty>
2.75276

> <r_epik_Ionization_Penalty>
1.47605

> <r_epik_Ionization_Penalty_Charging>
1.37074

> <r_epik_Ionization_Penalty_Neutral>
0.105316

> <r_epik_State_Penalty>
1.38203

> <r_lp_Energy>
61.6426

> <r_lp_tautomer_probability>
1

> <s_epik_Chemistry_Notes>
This compound contains an acetal/aminal-like group ( X-CH(R)-Y where X, Y are N, S, or O) that may be acid/base labile, releasing an aldehyde.

> <s_epik_cmdline>
J2VwaWtfcHl0aG9uJywgJy1waCcsICc3LjAnLCAnLXRuJywgJzgnLCAnLW1hJywgJzIwMCcsICctaW1hZScsICc8aW5maWxlLm1hZT4nLCAnLW9tYWUnLCAnPG91dGZpbGUubWFlPic=

> <s_epik_input>
TzFbQ0gyXVtDSDJdW05IXUMoPU8pYyhbY0hdbjIpYyhbTkhdMyluMltDSF09QyhPW0NIMl1bQ0gyXVtDSDJdNClbQ0BASF0zTjRbQ0gyXWMoYzE1KVtjSF1bY0hdYyhGKVtjSF01

> <s_lp_Force_Field>
OPLS_2005

> <s_lp_Variant>
MCD00066-3

> <s_m_source_file>
MCD00066.smi

$$$$
MCD00066
                    3D
 Schrodinger Suite 2023-4.
 49 53  0  0  1  0            999 V2000
    1.6535   -3.3490    2.1989 O   0  0  0  0  0  0
    1.7475   -2.1290    2.3096 C   0  0  0  0  0  0
    1.2712   -1.4739    3.3816 N   0  0  0  0  0  0
    1.1089   -0.0326    3.5567 C   0  0  0  0  0  0
   -0.3139    0.4270    3.1997 C   0  0  0  0  0  0
   -0.5092    0.4455    1.7871 O   0  0  0  0  0  0
   -1.6346    1.0843    1.2978 C   0  0  0  0  0  0
   -2.7170    1.4835    2.1250 C   0  0  0  0  0  0
   -3.8279    2.1588    1.5857 C   0  0  0  0  0  0
   -4.8498    2.5319    2.3916 F   0  0  0  0  0  0
   -3.8750    2.4514    0.2126 C   0  0  0  0  0  0
   -2.8146    2.0564   -0.6211 C   0  0  0  0  0  0
   -1.7055    1.3608   -0.0925 C   0  0  0  0  0  0
   -0.5852    0.9408   -1.0327 C   0  0  0  0  0  0
   -0.8323   -0.4037   -1.6334 N   0  3  1  0  0  0
   -1.7749   -0.4104   -2.7802 C   0  0  0  0  0  0
   -1.2079    0.2344   -4.0587 C   0  0  0  0  0  0
    0.0525   -0.4567   -4.6077 C   0  0  0  0  0  0
    1.2466   -0.0350   -3.9527 O   0  0  0  0  0  0
    1.4676   -0.4094   -2.6467 C   0  0  0  0  0  0
    2.6226   -0.0487   -2.0529 C   0  0  0  0  0  0
    2.8215   -0.4159   -0.7110 N   0  0  0  0  0  0
    3.8267    0.0242    0.1033 N   0  0  0  0  0  0
    3.5721   -0.5378    1.3076 C   0  0  0  0  0  0
    2.3898   -1.3282    1.2188 C   0  0  0  0  0  0
    1.9729   -1.2261   -0.0925 C   0  0  0  0  0  0
    0.8323   -1.8313   -0.6597 N   0  0  0  0  0  0
    0.3818   -1.2182   -1.9098 C   0  0  1  0  0  0
    0.8791   -2.0459    4.1158 H   0  0  0  0  0  0
    1.2882    0.1729    4.6121 H   0  0  0  0  0  0
    1.8480    0.5544    3.0139 H   0  0  0  0  0  0
   -1.0501   -0.2211    3.6779 H   0  0  0  0  0  0
   -0.4485    1.4336    3.5991 H   0  0  0  0  0  0
   -2.7213    1.2844    3.1858 H   0  0  0  0  0  0
   -4.7235    2.9766   -0.2011 H   0  0  0  0  0  0
   -2.8581    2.2883   -1.6752 H   0  0  0  0  0  0
   -0.4432    1.6983   -1.8026 H   0  0  0  0  0  0
    0.3421    0.9449   -0.4628 H   0  0  0  0  0  0
   -2.0529   -1.4440   -2.9910 H   0  0  0  0  0  0
   -2.7039    0.0824   -2.4982 H   0  0  0  0  0  0
   -1.9839    0.1742   -4.8223 H   0  0  0  0  0  0
   -1.0218    1.2993   -3.9221 H   0  0  0  0  0  0
   -0.0448   -1.5427   -4.6221 H   0  0  0  0  0  0
    0.1694   -0.1664   -5.6521 H   0  0  0  0  0  0
    3.4181    0.5351   -2.4931 H   0  0  0  0  0  0
    4.2238   -0.3509    2.1481 H   0  0  0  0  0  0
    0.1978   -2.3721   -0.0890 H   0  0  0  0  0  0
    0.1059   -2.0736   -2.5258 H   0  0  0  0  0  0
   -1.3130   -0.9193   -0.9104 H   0  0  0  0  0  0
  1  2  2  0  0  0
  2  3  1  0  0  0
  2 25  1  0  0  0
  3  4  1  0  0  0
  3 29  1  0  0  0
  4  5  1  0  0  0
  4 30  1  0  0  0
  4 31  1  0  0  0
  5  6  1  0  0  0
  5 32  1  0  0  0
  5 33  1  0  0  0
  6  7  1  0  0  0
  7  8  2  0  0  0
  7 13  1  0  0  0
  8  9  1  0  0  0
  8 34  1  0  0  0
  9 10  1  0  0  0
  9 11  2  0  0  0
 11 12  1  0  0  0
 11 35  1  0  0  0
 12 13  2  0  0  0
 12 36  1  0  0  0
 13 14  1  0  0  0
 14 15  1  0  0  0
 14 37  1  0  0  0
 14 38  1  0  0  0
 15 16  1  0  0  0
 15 28  1  0  0  0
 15 49  1  0  0  0
 16 17  1  0  0  0
 16 39  1  0  0  0
 16 40  1  0  0  0
 17 18  1  0  0  0
 17 41  1  0  0  0
 17 42  1  0  0  0
 18 19  1  0  0  0
 18 43  1  0  0  0
 18 44  1  0  0  0
 19 20  1  0  0  0
 20 21  2  0  0  0
 20 28  1  0  0  0
 21 22  1  0  0  0
 21 45  1  0  0  0
 22 23  1  0  0  0
 22 26  1  0  0  0
 23 24  2  0  0  0
 24 25  1  0  0  0
 24 46  1  0  0  0
 25 26  2  0  0  0
 26 27  1  0  0  0
 27 28  1  0  0  0
 27 47  1  0  0  0
 28 48  1  0  0  0
M  CHG  1  15   1
M  END
> <i_epik_Tot_Q>
1

> <i_epik_Tot_abs_Q>
1

> <i_f3d_flags>
0

> <i_lp_mmshare_version>
64135

> <i_m_source_file_index>
1

> <b_lp_Chiralities_Consistent>
1

> <r_epik_Charging_Adjusted_Penalty>
2.75276

> <r_epik_Ionization_Penalty>
1.47605

> <r_epik_Ionization_Penalty_Charging>
1.37074

> <r_epik_Ionization_Penalty_Neutral>
0.105316

> <r_epik_State_Penalty>
1.38203

> <r_lp_Energy>
58.0461

> <r_lp_tautomer_probability>
1

> <s_epik_Chemistry_Notes>
This compound contains an acetal/aminal-like group ( X-CH(R)-Y where X, Y are N, S, or O) that may be acid/base labile, releasing an aldehyde.

> <s_epik_cmdline>
J2VwaWtfcHl0aG9uJywgJy1waCcsICc3LjAnLCAnLXRuJywgJzgnLCAnLW1hJywgJzIwMCcsICctaW1hZScsICc8aW5maWxlLm1hZT4nLCAnLW9tYWUnLCAnPG91dGZpbGUubWFlPic=

> <s_epik_input>
TzFbQ0gyXVtDSDJdW05IXUMoPU8pYyhbY0hdbjIpYyhbTkhdMyluMltDSF09QyhPW0NIMl1bQ0gyXVtDSDJdNClbQ0BASF0zTjRbQ0gyXWMoYzE1KVtjSF1bY0hdYyhGKVtjSF01

> <s_lp_Force_Field>
OPLS_2005

> <s_lp_Variant>
MCD00066-4

> <s_m_source_file>
MCD00066.smi

$$$$
MCD00066
                    3D
 Schrodinger Suite 2023-4.
 49 53  0  0  1  0            999 V2000
   -1.7008   -1.7728    3.5664 O   0  0  0  0  0  0
   -2.1059   -0.9445    2.7543 C   0  0  0  0  0  0
   -2.3486    0.3306    3.1015 N   0  0  0  0  0  0
   -2.6107    1.4688    2.2238 C   0  0  0  0  0  0
   -1.3288    2.2598    1.9175 C   0  0  0  0  0  0
   -0.5019    1.5605    0.9893 O   0  0  0  0  0  0
    0.5484    2.2511    0.4114 C   0  0  0  0  0  0
    0.9967    3.5118    0.8857 C   0  0  0  0  0  0
    2.0481    4.1928    0.2447 C   0  0  0  0  0  0
    2.4592    5.3953    0.7115 F   0  0  0  0  0  0
    2.6679    3.6285   -0.8826 C   0  0  0  0  0  0
    2.2417    2.3767   -1.3591 C   0  0  0  0  0  0
    1.2005    1.6773   -0.7112 C   0  0  0  0  0  0
    0.7772    0.3203   -1.2541 C   0  0  0  0  0  0
    1.5679   -0.7956   -0.6548 N   0  3  2  0  0  0
    2.9137   -0.9953   -1.2490 C   0  0  0  0  0  0
    2.8871   -1.5672   -2.6789 C   0  0  0  0  0  0
    2.2208   -2.9494   -2.7929 C   0  0  0  0  0  0
    0.7993   -2.8753   -2.8740 O   0  0  0  0  0  0
    0.0798   -2.4885   -1.7662 C   0  0  0  0  0  0
   -1.2659   -2.4687   -1.8386 C   0  0  0  0  0  0
   -1.9852   -2.0454   -0.7079 N   0  0  0  0  0  0
   -3.3235   -1.7725   -0.6606 N   0  0  0  0  0  0
   -3.5469   -1.3375    0.6011 C   0  0  0  0  0  0
   -2.3203   -1.3434    1.3263 C   0  0  0  0  0  0
   -1.3713   -1.8229    0.4466 C   0  0  0  0  0  0
    0.0031   -1.9996    0.7090 N   0  0  0  0  0  0
    0.8404   -2.0831   -0.4883 C   0  0  2  0  0  0
   -2.2330    0.5558    4.0793 H   0  0  0  0  0  0
   -3.1200    1.1940    1.3016 H   0  0  0  0  0  0
   -3.3024    2.1197    2.7589 H   0  0  0  0  0  0
   -1.6243    3.2197    1.4906 H   0  0  0  0  0  0
   -0.7812    2.4614    2.8394 H   0  0  0  0  0  0
    0.5476    3.9850    1.7455 H   0  0  0  0  0  0
    3.4697    4.1541   -1.3803 H   0  0  0  0  0  0
    2.7226    1.9518   -2.2280 H   0  0  0  0  0  0
   -0.2835    0.1985   -1.0435 H   0  0  0  0  0  0
    0.8486    0.3157   -2.3410 H   0  0  0  0  0  0
    3.4670   -0.0577   -1.2358 H   0  0  0  0  0  0
    3.4785   -1.6687   -0.6029 H   0  0  0  0  0  0
    2.4281   -0.8712   -3.3805 H   0  0  0  0  0  0
    3.9224   -1.6652   -3.0072 H   0  0  0  0  0  0
    2.5470   -3.4055   -3.7279 H   0  0  0  0  0  0
    2.5510   -3.6337   -2.0108 H   0  0  0  0  0  0
   -1.8677   -2.7146   -2.7012 H   0  0  0  0  0  0
   -4.5398   -1.0484    0.9129 H   0  0  0  0  0  0
    0.3977   -1.7260    1.5978 H   0  0  0  0  0  0
    1.5546   -2.8690   -0.2440 H   0  0  0  0  0  0
    1.7525   -0.4947    0.2914 H   0  0  0  0  0  0
  1  2  2  0  0  0
  2  3  1  0  0  0
  2 25  1  0  0  0
  3  4  1  0  0  0
  3 29  1  0  0  0
  4  5  1  0  0  0
  4 30  1  0  0  0
  4 31  1  0  0  0
  5  6  1  0  0  0
  5 32  1  0  0  0
  5 33  1  0  0  0
  6  7  1  0  0  0
  7  8  2  0  0  0
  7 13  1  0  0  0
  8  9  1  0  0  0
  8 34  1  0  0  0
  9 10  1  0  0  0
  9 11  2  0  0  0
 11 12  1  0  0  0
 11 35  1  0  0  0
 12 13  2  0  0  0
 12 36  1  0  0  0
 13 14  1  0  0  0
 14 15  1  0  0  0
 14 37  1  0  0  0
 14 38  1  0  0  0
 15 16  1  0  0  0
 15 28  1  0  0  0
 15 49  1  0  0  0
 16 17  1  0  0  0
 16 39  1  0  0  0
 16 40  1  0  0  0
 17 18  1  0  0  0
 17 41  1  0  0  0
 17 42  1  0  0  0
 18 19  1  0  0  0
 18 43  1  0  0  0
 18 44  1  0  0  0
 19 20  1  0  0  0
 20 21  2  0  0  0
 20 28  1  0  0  0
 21 22  1  0  0  0
 21 45  1  0  0  0
 22 23  1  0  0  0
 22 26  1  0  0  0
 23 24  2  0  0  0
 24 25  1  0  0  0
 24 46  1  0  0  0
 25 26  2  0  0  0
 26 27  1  0  0  0
 27 28  1  0  0  0
 27 47  1  0  0  0
 28 48  1  0  0  0
M  CHG  1  15   1
M  END
> <i_epik_Tot_Q>
1

> <i_epik_Tot_abs_Q>
1

> <i_f3d_flags>
0

> <i_lp_mmshare_version>
64135

> <i_m_source_file_index>
1

> <b_lp_Chiralities_Consistent>
1

> <r_epik_Charging_Adjusted_Penalty>
2.75276

> <r_epik_Ionization_Penalty>
1.47605

> <r_epik_Ionization_Penalty_Charging>
1.37074

> <r_epik_Ionization_Penalty_Neutral>
0.105316

> <r_epik_State_Penalty>
1.38203

> <r_lp_Energy>
58.0465

> <r_lp_tautomer_probability>
1

> <s_epik_Chemistry_Notes>
This compound contains an acetal/aminal-like group ( X-CH(R)-Y where X, Y are N, S, or O) that may be acid/base labile, releasing an aldehyde.

> <s_epik_cmdline>
J2VwaWtfcHl0aG9uJywgJy1waCcsICc3LjAnLCAnLXRuJywgJzgnLCAnLW1hJywgJzIwMCcsICctaW1hZScsICc8aW5maWxlLm1hZT4nLCAnLW9tYWUnLCAnPG91dGZpbGUubWFlPic=

> <s_epik_input>
TzFbQ0gyXVtDSDJdW05IXUMoPU8pYyhbY0hdbjIpYyhbTkhdMyluMltDSF09QyhPW0NIMl1bQ0gyXVtDSDJdNClbQ0BASF0zTjRbQ0gyXWMoYzE1KVtjSF1bY0hdYyhGKVtjSF01

> <s_lp_Force_Field>
OPLS_2005

> <s_lp_Variant>
MCD00066-5

> <s_m_source_file>
MCD00066.smi

$$$$
MCD00066
                    3D
 Schrodinger Suite 2023-4.
 49 53  0  0  1  0            999 V2000
   -1.7826   -1.2829    3.6740 O   0  0  0  0  0  0
   -2.1722   -0.7338    2.6465 C   0  0  0  0  0  0
   -2.5061    0.5684    2.6133 N   0  0  0  0  0  0
   -2.7902    1.3898    1.4370 C   0  0  0  0  0  0
   -1.6324    2.3457    1.1158 C   0  0  0  0  0  0
   -0.4487    1.6322    0.7595 O   0  0  0  0  0  0
    0.6593    2.3660    0.3731 C   0  0  0  0  0  0
    0.6299    3.7711    0.1687 C   0  0  0  0  0  0
    1.7827    4.4675   -0.2392 C   0  0  0  0  0  0
    1.7305    5.8064   -0.4326 F   0  0  0  0  0  0
    2.9875    3.7753   -0.4451 C   0  0  0  0  0  0
    3.0368    2.3862   -0.2385 C   0  0  0  0  0  0
    1.8835    1.6793    0.1662 C   0  0  0  0  0  0
    1.9919    0.1806    0.4109 C   0  0  0  0  0  0
    1.3342   -0.6401   -0.6483 N   0  3  1  0  0  0
    2.0704   -0.5495   -1.9489 C   0  0  0  0  0  0
    1.2318   -0.9960   -3.1642 C   0  0  0  0  0  0
    1.3259   -2.5124   -3.4397 C   0  0  0  0  0  0
    1.3487   -3.2771   -2.2420 O   0  0  0  0  0  0
    0.4327   -2.8751   -1.3163 C   0  0  0  0  0  0
   -0.8891   -3.1162   -1.4405 C   0  0  0  0  0  0
   -1.7292   -2.5840   -0.4479 N   0  0  0  0  0  0
   -3.0909   -2.4868   -0.5021 N   0  0  0  0  0  0
   -3.4359   -1.8207    0.6249 C   0  0  0  0  0  0
   -2.2604   -1.5100    1.3690 C   0  0  0  0  0  0
   -1.2137   -2.0484    0.6507 C   0  0  0  0  0  0
    0.1574   -2.0035    0.9844 N   0  0  0  0  0  0
    1.0400   -2.0383   -0.1876 C   0  0  2  0  0  0
   -2.4682    1.0644    3.4924 H   0  0  0  0  0  0
   -3.0354    0.8079    0.5505 H   0  0  0  0  0  0
   -3.6823    1.9754    1.6600 H   0  0  0  0  0  0
   -1.9525    2.9748    0.2841 H   0  0  0  0  0  0
   -1.4353    2.9945    1.9710 H   0  0  0  0  0  0
   -0.2685    4.3498    0.3159 H   0  0  0  0  0  0
    3.8735    4.3097   -0.7554 H   0  0  0  0  0  0
    3.9698    1.8633   -0.3899 H   0  0  0  0  0  0
    3.0388   -0.1154    0.4943 H   0  0  0  0  0  0
    1.5623    0.0075    1.3967 H   0  0  0  0  0  0
    2.3431    0.4889   -2.1318 H   0  0  0  0  0  0
    3.0110   -1.1000   -1.8940 H   0  0  0  0  0  0
    0.1930   -0.6917   -3.0271 H   0  0  0  0  0  0
    1.5736   -0.4693   -4.0559 H   0  0  0  0  0  0
    0.5076   -2.8393   -4.0825 H   0  0  0  0  0  0
    2.2499   -2.7287   -3.9764 H   0  0  0  0  0  0
   -1.3865   -3.6426   -2.2419 H   0  0  0  0  0  0
   -4.4709   -1.5883    0.8284 H   0  0  0  0  0  0
    0.4412   -1.4784    1.7994 H   0  0  0  0  0  0
    1.9771   -2.5108    0.1102 H   0  0  0  0  0  0
    0.4345   -0.2095   -0.8077 H   0  0  0  0  0  0
  1  2  2  0  0  0
  2  3  1  0  0  0
  2 25  1  0  0  0
  3  4  1  0  0  0
  3 29  1  0  0  0
  4  5  1  0  0  0
  4 30  1  0  0  0
  4 31  1  0  0  0
  5  6  1  0  0  0
  5 32  1  0  0  0
  5 33  1  0  0  0
  6  7  1  0  0  0
  7  8  2  0  0  0
  7 13  1  0  0  0
  8  9  1  0  0  0
  8 34  1  0  0  0
  9 10  1  0  0  0
  9 11  2  0  0  0
 11 12  1  0  0  0
 11 35  1  0  0  0
 12 13  2  0  0  0
 12 36  1  0  0  0
 13 14  1  0  0  0
 14 15  1  0  0  0
 14 37  1  0  0  0
 14 38  1  0  0  0
 15 16  1  0  0  0
 15 28  1  0  0  0
 15 49  1  0  0  0
 16 17  1  0  0  0
 16 39  1  0  0  0
 16 40  1  0  0  0
 17 18  1  0  0  0
 17 41  1  0  0  0
 17 42  1  0  0  0
 18 19  1  0  0  0
 18 43  1  0  0  0
 18 44  1  0  0  0
 19 20  1  0  0  0
 20 21  2  0  0  0
 20 28  1  0  0  0
 21 22  1  0  0  0
 21 45  1  0  0  0
 22 23  1  0  0  0
 22 26  1  0  0  0
 23 24  2  0  0  0
 24 25  1  0  0  0
 24 46  1  0  0  0
 25 26  2  0  0  0
 26 27  1  0  0  0
 27 28  1  0  0  0
 27 47  1  0  0  0
 28 48  1  0  0  0
M  CHG  1  15   1
M  END
> <i_epik_Tot_Q>
1

> <i_epik_Tot_abs_Q>
1

> <i_f3d_flags>
0

> <i_lp_mmshare_version>
64135

> <i_m_source_file_index>
1

> <b_lp_Chiralities_Consistent>
1

> <r_epik_Charging_Adjusted_Penalty>
2.75276

> <r_epik_Ionization_Penalty>
1.47605

> <r_epik_Ionization_Penalty_Charging>
1.37074

> <r_epik_Ionization_Penalty_Neutral>
0.105316

> <r_epik_State_Penalty>
1.38203

> <r_lp_Energy>
64.6213

> <r_lp_tautomer_probability>
1

> <s_epik_Chemistry_Notes>
This compound contains an acetal/aminal-like group ( X-CH(R)-Y where X, Y are N, S, or O) that may be acid/base labile, releasing an aldehyde.

> <s_epik_cmdline>
J2VwaWtfcHl0aG9uJywgJy1waCcsICc3LjAnLCAnLXRuJywgJzgnLCAnLW1hJywgJzIwMCcsICctaW1hZScsICc8aW5maWxlLm1hZT4nLCAnLW9tYWUnLCAnPG91dGZpbGUubWFlPic=

> <s_epik_input>
TzFbQ0gyXVtDSDJdW05IXUMoPU8pYyhbY0hdbjIpYyhbTkhdMyluMltDSF09QyhPW0NIMl1bQ0gyXVtDSDJdNClbQ0BASF0zTjRbQ0gyXWMoYzE1KVtjSF1bY0hdYyhGKVtjSF01

> <s_lp_Force_Field>
OPLS_2005

> <s_lp_Variant>
MCD00066-6

> <s_m_source_file>
MCD00066.smi

$$$$
MCD00066
                    3D
 Schrodinger Suite 2023-4.
 48 52  0  0  1  0            999 V2000
   -1.4331   -0.9002    4.5565 O   0  0  0  0  0  0
   -0.6635   -0.7396    3.6114 C   0  0  0  0  0  0
    0.1564    0.3302    3.5806 N   0  0  0  0  0  0
    1.1131    0.7648    2.5682 C   0  0  0  0  0  0
    0.5432    1.9768    1.8129 C   0  0  0  0  0  0
    1.1336    2.0844    0.5220 O   0  0  0  0  0  0
    0.3393    2.6714   -0.4390 C   0  0  0  0  0  0
   -0.4626    3.8020   -0.1471 C   0  0  0  0  0  0
   -1.2923    4.3669   -1.1329 C   0  0  0  0  0  0
   -2.0543    5.4471   -0.8397 F   0  0  0  0  0  0
   -1.3303    3.8084   -2.4224 C   0  0  0  0  0  0
   -0.5305    2.6919   -2.7263 C   0  0  0  0  0  0
    0.3102    2.1224   -1.7454 C   0  0  0  0  0  0
    1.1758    0.9275   -2.1272 C   0  0  0  0  0  0
    1.0819   -0.2205   -1.1863 N   0  3  2  0  0  0
    2.2402   -1.1611   -1.2943 C   0  0  0  0  0  0
    2.3932   -1.8469   -2.6766 C   0  0  0  0  0  0
    1.3680   -2.9608   -2.9643 C   0  0  0  0  0  0
    0.0515   -2.4480   -2.8177 O   0  0  0  0  0  0
   -0.3000   -2.2793   -1.5088 C   0  0  0  0  0  0
   -0.4365   -3.2990   -0.6388 C   0  0  0  0  0  0
   -0.5515   -2.9797    0.7303 N   0  0  0  0  0  0
   -0.5221   -3.9153    1.7214 N   0  0  0  0  0  0
   -0.5587   -3.2063    2.8613 C   0  0  0  0  0  0
   -0.5814   -1.8163    2.5602 C   0  0  0  0  0  0
   -0.6121   -1.7110    1.1674 C   0  0  0  0  0  0
   -0.6917   -0.6534    0.3334 N   0  5  0  0  0  0
   -0.2794   -0.8293   -1.0555 C   0  0  1  0  0  0
    0.0584    0.9644    4.3601 H   0  0  0  0  0  0
    2.0434    1.0464    3.0613 H   0  0  0  0  0  0
    1.3796   -0.0457    1.8927 H   0  0  0  0  0  0
   -0.5382    1.8546    1.7162 H   0  0  0  0  0  0
    0.7108    2.8907    2.3838 H   0  0  0  0  0  0
   -0.4492    4.2470    0.8367 H   0  0  0  0  0  0
   -1.9689    4.2387   -3.1799 H   0  0  0  0  0  0
   -0.5628    2.2768   -3.7230 H   0  0  0  0  0  0
    0.9116    0.5908   -3.1301 H   0  0  0  0  0  0
    2.2069    1.2790   -2.1738 H   0  0  0  0  0  0
    3.1441   -0.5853   -1.0926 H   0  0  0  0  0  0
    2.1938   -1.9035   -0.4965 H   0  0  0  0  0  0
    2.3691   -1.1094   -3.4778 H   0  0  0  0  0  0
    3.3874   -2.2913   -2.7302 H   0  0  0  0  0  0
    1.4875   -3.3098   -3.9899 H   0  0  0  0  0  0
    1.5470   -3.8283   -2.3269 H   0  0  0  0  0  0
   -0.3747   -4.3538   -0.8633 H   0  0  0  0  0  0
   -0.5592   -3.7106    3.8165 H   0  0  0  0  0  0
   -0.9707   -0.3059   -1.7170 H   0  0  0  0  0  0
    1.2141    0.2126   -0.2832 H   0  0  0  0  0  0
  1  2  2  0  0  0
  2  3  1  0  0  0
  2 25  1  0  0  0
  3  4  1  0  0  0
  3 29  1  0  0  0
  4  5  1  0  0  0
  4 30  1  0  0  0
  4 31  1  0  0  0
  5  6  1  0  0  0
  5 32  1  0  0  0
  5 33  1  0  0  0
  6  7  1  0  0  0
  7  8  2  0  0  0
  7 13  1  0  0  0
  8  9  1  0  0  0
  8 34  1  0  0  0
  9 10  1  0  0  0
  9 11  2  0  0  0
 11 12  1  0  0  0
 11 35  1  0  0  0
 12 13  2  0  0  0
 12 36  1  0  0  0
 13 14  1  0  0  0
 14 15  1  0  0  0
 14 37  1  0  0  0
 14 38  1  0  0  0
 15 16  1  0  0  0
 15 28  1  0  0  0
 15 48  1  0  0  0
 16 17  1  0  0  0
 16 39  1  0  0  0
 16 40  1  0  0  0
 17 18  1  0  0  0
 17 41  1  0  0  0
 17 42  1  0  0  0
 18 19  1  0  0  0
 18 43  1  0  0  0
 18 44  1  0  0  0
 19 20  1  0  0  0
 20 21  2  0  0  0
 20 28  1  0  0  0
 21 22  1  0  0  0
 21 45  1  0  0  0
 22 23  1  0  0  0
 22 26  1  0  0  0
 23 24  2  0  0  0
 24 25  1  0  0  0
 24 46  1  0  0  0
 25 26  2  0  0  0
 26 27  1  0  0  0
 27 28  1  0  0  0
 28 47  1  0  0  0
M  CHG  2  15   1  27  -1
M  END
> <i_epik_Tot_Q>
0

> <i_epik_Tot_abs_Q>
2

> <i_f3d_flags>
0

> <i_lp_mmshare_version>
64135

> <i_m_source_file_index>
1

> <b_lp_Chiralities_Consistent>
1

> <r_epik_Charging_Adjusted_Penalty>
3.80262

> <r_epik_Ionization_Penalty>
1.45101

> <r_epik_Ionization_Penalty_Charging>
1.45058

> <r_epik_Ionization_Penalty_Neutral>
0.000435069

> <r_epik_State_Penalty>
2.35204

> <r_lp_Energy>
55.4563

> <s_epik_Chemistry_Notes>
This compound contains an acetal/aminal-like group ( X-CH(R)-Y where X, Y are N, S, or O) that may be acid/base labile, releasing an aldehyde.

> <s_epik_cmdline>
J2VwaWtfcHl0aG9uJywgJy1waCcsICc3LjAnLCAnLXRuJywgJzgnLCAnLW1hJywgJzIwMCcsICctaW1hZScsICc8aW5maWxlLm1hZT4nLCAnLW9tYWUnLCAnPG91dGZpbGUubWFlPic=

> <s_epik_input>
TzFbQ0gyXVtDSDJdW05IXUMoPU8pYyhbY0hdbjIpYyhbTkhdMyluMltDSF09QyhPW0NIMl1bQ0gyXVtDSDJdNClbQ0BASF0zTjRbQ0gyXWMoYzE1KVtjSF1bY0hdYyhGKVtjSF01

> <s_lp_Force_Field>
OPLS_2005

> <s_lp_Variant>
MCD00066-7

> <s_m_source_file>
MCD00066.smi

$$$$
MCD00066
                    3D
 Schrodinger Suite 2023-4.
 48 52  0  0  1  0            999 V2000
    0.5609   -2.8708    3.9379 O   0  0  0  0  0  0
   -0.0013   -2.3675    2.9673 C   0  0  0  0  0  0
   -1.0616   -1.5565    3.1358 N   0  0  0  0  0  0
   -2.0044   -0.9998    2.1676 C   0  0  0  0  0  0
   -2.2515    0.4912    2.4681 C   0  0  0  0  0  0
   -1.4065    1.3218    1.6759 O   0  0  0  0  0  0
   -1.8374    1.8340    0.4654 C   0  0  0  0  0  0
   -3.1830    1.7956    0.0141 C   0  0  0  0  0  0
   -3.5506    2.3865   -1.2093 C   0  0  0  0  0  0
   -4.8406    2.3451   -1.6186 F   0  0  0  0  0  0
   -2.5837    3.0231   -2.0053 C   0  0  0  0  0  0
   -1.2441    3.0528   -1.5826 C   0  0  0  0  0  0
   -0.8653    2.4543   -0.3622 C   0  0  0  0  0  0
    0.6147    2.4391    0.0068 C   0  0  0  0  0  0
    1.3938    1.4875   -0.8369 N   0  3  1  0  0  0
    2.8665    1.5845   -0.6355 C   0  0  0  0  0  0
    3.6162    1.5495   -1.9809 C   0  0  0  0  0  0
    3.5365    0.1948   -2.7028 C   0  0  0  0  0  0
    2.1706   -0.1296   -2.9210 O   0  0  0  0  0  0
    1.6098   -0.7902   -1.8645 C   0  0  0  0  0  0
    1.8529   -2.0899   -1.6086 C   0  0  0  0  0  0
    1.3551   -2.6173   -0.3971 N   0  0  0  0  0  0
    1.3722   -3.9443   -0.0814 N   0  0  0  0  0  0
    0.8475   -4.0081    1.1551 C   0  0  0  0  0  0
    0.4961   -2.7003    1.5896 C   0  0  0  0  0  0
    0.8540   -1.8274    0.5666 C   0  0  0  0  0  0
    0.8260   -0.4835    0.4726 N   0  5  0  0  0  0
    0.8623    0.0897   -0.8709 C   0  0  1  0  0  0
   -1.2972   -1.3639    4.0984 H   0  0  0  0  0  0
   -1.7257   -1.1601    1.1277 H   0  0  0  0  0  0
   -2.9383   -1.5441    2.3085 H   0  0  0  0  0  0
   -3.3075    0.7365    2.3983 H   0  0  0  0  0  0
   -2.0137    0.7003    3.5118 H   0  0  0  0  0  0
   -3.9721    1.3287    0.5788 H   0  0  0  0  0  0
   -2.8672    3.4773   -2.9432 H   0  0  0  0  0  0
   -0.5001    3.5230   -2.2091 H   0  0  0  0  0  0
    1.0023    3.4472   -0.1449 H   0  0  0  0  0  0
    0.7662    2.2168    1.0632 H   0  0  0  0  0  0
    3.1071    2.5305   -0.1490 H   0  0  0  0  0  0
    3.2260    0.8049    0.0376 H   0  0  0  0  0  0
    3.2269    2.3326   -2.6327 H   0  0  0  0  0  0
    4.6655    1.7922   -1.8107 H   0  0  0  0  0  0
    4.0323    0.2638   -3.6713 H   0  0  0  0  0  0
    4.0655   -0.5770   -2.1397 H   0  0  0  0  0  0
    2.4081   -2.7817   -2.2246 H   0  0  0  0  0  0
    0.7693   -4.9562    1.6665 H   0  0  0  0  0  0
   -0.1467    0.1340   -1.2802 H   0  0  0  0  0  0
    1.2524    1.8293   -1.7763 H   0  0  0  0  0  0
  1  2  2  0  0  0
  2  3  1  0  0  0
  2 25  1  0  0  0
  3  4  1  0  0  0
  3 29  1  0  0  0
  4  5  1  0  0  0
  4 30  1  0  0  0
  4 31  1  0  0  0
  5  6  1  0  0  0
  5 32  1  0  0  0
  5 33  1  0  0  0
  6  7  1  0  0  0
  7  8  2  0  0  0
  7 13  1  0  0  0
  8  9  1  0  0  0
  8 34  1  0  0  0
  9 10  1  0  0  0
  9 11  2  0  0  0
 11 12  1  0  0  0
 11 35  1  0  0  0
 12 13  2  0  0  0
 12 36  1  0  0  0
 13 14  1  0  0  0
 14 15  1  0  0  0
 14 37  1  0  0  0
 14 38  1  0  0  0
 15 16  1  0  0  0
 15 28  1  0  0  0
 15 48  1  0  0  0
 16 17  1  0  0  0
 16 39  1  0  0  0
 16 40  1  0  0  0
 17 18  1  0  0  0
 17 41  1  0  0  0
 17 42  1  0  0  0
 18 19  1  0  0  0
 18 43  1  0  0  0
 18 44  1  0  0  0
 19 20  1  0  0  0
 20 21  2  0  0  0
 20 28  1  0  0  0
 21 22  1  0  0  0
 21 45  1  0  0  0
 22 23  1  0  0  0
 22 26  1  0  0  0
 23 24  2  0  0  0
 24 25  1  0  0  0
 24 46  1  0  0  0
 25 26  2  0  0  0
 26 27  1  0  0  0
 27 28  1  0  0  0
 28 47  1  0  0  0
M  CHG  2  15   1  27  -1
M  END
> <i_epik_Tot_Q>
0

> <i_epik_Tot_abs_Q>
2

> <i_f3d_flags>
0

> <i_lp_mmshare_version>
64135

> <i_m_source_file_index>
1

> <b_lp_Chiralities_Consistent>
1

> <r_epik_Charging_Adjusted_Penalty>
3.80262

> <r_epik_Ionization_Penalty>
1.45101

> <r_epik_Ionization_Penalty_Charging>
1.45058

> <r_epik_Ionization_Penalty_Neutral>
0.000435069

> <r_epik_State_Penalty>
2.35204

> <r_lp_Energy>
55.5187

> <s_epik_Chemistry_Notes>
This compound contains an acetal/aminal-like group ( X-CH(R)-Y where X, Y are N, S, or O) that may be acid/base labile, releasing an aldehyde.

> <s_epik_cmdline>
J2VwaWtfcHl0aG9uJywgJy1waCcsICc3LjAnLCAnLXRuJywgJzgnLCAnLW1hJywgJzIwMCcsICctaW1hZScsICc8aW5maWxlLm1hZT4nLCAnLW9tYWUnLCAnPG91dGZpbGUubWFlPic=

> <s_epik_input>
TzFbQ0gyXVtDSDJdW05IXUMoPU8pYyhbY0hdbjIpYyhbTkhdMyluMltDSF09QyhPW0NIMl1bQ0gyXVtDSDJdNClbQ0BASF0zTjRbQ0gyXWMoYzE1KVtjSF1bY0hdYyhGKVtjSF01

> <s_lp_Force_Field>
OPLS_2005

> <s_lp_Variant>
MCD00066-8

> <s_m_source_file>
MCD00066.smi

$$$$
MCD00066
                    3D
 Schrodinger Suite 2023-4.
 48 52  0  0  1  0            999 V2000
    2.5887   -0.0119   -4.3315 O   0  0  0  0  0  0
    1.6327    0.2870   -3.6192 C   0  0  0  0  0  0
    0.4138   -0.2563   -3.7990 N   0  0  0  0  0  0
   -0.8330    0.1329   -3.1440 C   0  0  0  0  0  0
   -1.2837   -0.8977   -2.0980 C   0  0  0  0  0  0
   -1.8652   -0.1741   -1.0259 O   0  0  0  0  0  0
   -2.4246   -0.9217   -0.0221 C   0  0  0  0  0  0
   -3.5067   -1.7910   -0.2831 C   0  0  0  0  0  0
   -4.1256   -2.4901    0.7701 C   0  0  0  0  0  0
   -5.1655   -3.3184    0.5143 F   0  0  0  0  0  0
   -3.6724   -2.3160    2.0908 C   0  0  0  0  0  0
   -2.5937   -1.4517    2.3562 C   0  0  0  0  0  0
   -1.9547   -0.7625    1.3029 C   0  0  0  0  0  0
   -0.7507    0.1238    1.5945 C   0  0  0  0  0  0
    0.5136   -0.6701    1.5836 N   0  3  2  0  0  0
    0.8083   -1.3923    2.8475 C   0  0  0  0  0  0
    1.1393   -0.4655    4.0292 C   0  0  0  0  0  0
    2.3239    0.4739    3.7644 C   0  0  0  0  0  0
    1.9627    1.5881    2.9533 O   0  0  0  0  0  0
    1.9209    1.4175    1.5886 C   0  0  0  0  0  0
    2.0103    2.4918    0.7845 C   0  0  0  0  0  0
    1.9632    2.2918   -0.6106 N   0  0  0  0  0  0
    2.1499    3.2898   -1.5247 N   0  0  0  0  0  0
    2.0696    2.6829   -2.7227 C   0  0  0  0  0  0
    1.8037    1.3016   -2.5263 C   0  0  0  0  0  0
    1.7571    1.0831   -1.1535 C   0  0  0  0  0  0
    1.5747   -0.0430   -0.4363 N   0  5  0  0  0  0
    1.7090    0.0111    1.0147 C   0  0  2  0  0  0
    0.3316   -0.9541   -4.5239 H   0  0  0  0  0  0
   -0.7442    1.1202   -2.6894 H   0  0  0  0  0  0
   -1.6067    0.2409   -3.9045 H   0  0  0  0  0  0
   -1.9775   -1.6080   -2.5484 H   0  0  0  0  0  0
   -0.4384   -1.4710   -1.7152 H   0  0  0  0  0  0
   -3.8828   -1.9077   -1.2886 H   0  0  0  0  0  0
   -4.1521   -2.8460    2.9005 H   0  0  0  0  0  0
   -2.2514   -1.3280    3.3733 H   0  0  0  0  0  0
   -0.7090    0.9098    0.8403 H   0  0  0  0  0  0
   -0.8914    0.6475    2.5385 H   0  0  0  0  0  0
   -0.0315   -2.0338    3.1084 H   0  0  0  0  0  0
    1.6423   -2.0736    2.6748 H   0  0  0  0  0  0
    0.2687    0.1111    4.3405 H   0  0  0  0  0  0
    1.3876   -1.0961    4.8834 H   0  0  0  0  0  0
    2.6506    0.8873    4.7186 H   0  0  0  0  0  0
    3.1897   -0.0587    3.3693 H   0  0  0  0  0  0
    2.1455    3.5166    1.0976 H   0  0  0  0  0  0
    2.1876    3.2489   -3.6349 H   0  0  0  0  0  0
    2.5951   -0.5685    1.2737 H   0  0  0  0  0  0
    0.3379   -1.4040    0.9125 H   0  0  0  0  0  0
  1  2  2  0  0  0
  2  3  1  0  0  0
  2 25  1  0  0  0
  3  4  1  0  0  0
  3 29  1  0  0  0
  4  5  1  0  0  0
  4 30  1  0  0  0
  4 31  1  0  0  0
  5  6  1  0  0  0
  5 32  1  0  0  0
  5 33  1  0  0  0
  6  7  1  0  0  0
  7  8  2  0  0  0
  7 13  1  0  0  0
  8  9  1  0  0  0
  8 34  1  0  0  0
  9 10  1  0  0  0
  9 11  2  0  0  0
 11 12  1  0  0  0
 11 35  1  0  0  0
 12 13  2  0  0  0
 12 36  1  0  0  0
 13 14  1  0  0  0
 14 15  1  0  0  0
 14 37  1  0  0  0
 14 38  1  0  0  0
 15 16  1  0  0  0
 15 28  1  0  0  0
 15 48  1  0  0  0
 16 17  1  0  0  0
 16 39  1  0  0  0
 16 40  1  0  0  0
 17 18  1  0  0  0
 17 41  1  0  0  0
 17 42  1  0  0  0
 18 19  1  0  0  0
 18 43  1  0  0  0
 18 44  1  0  0  0
 19 20  1  0  0  0
 20 21  2  0  0  0
 20 28  1  0  0  0
 21 22  1  0  0  0
 21 45  1  0  0  0
 22 23  1  0  0  0
 22 26  1  0  0  0
 23 24  2  0  0  0
 24 25  1  0  0  0
 24 46  1  0  0  0
 25 26  2  0  0  0
 26 27  1  0  0  0
 27 28  1  0  0  0
 28 47  1  0  0  0
M  CHG  2  15   1  27  -1
M  END
> <i_epik_Tot_Q>
0

> <i_epik_Tot_abs_Q>
2

> <i_f3d_flags>
0

> <i_lp_mmshare_version>
64135

> <i_m_source_file_index>
1

> <b_lp_Chiralities_Consistent>
1

> <r_epik_Charging_Adjusted_Penalty>
3.80262

> <r_epik_Ionization_Penalty>
1.45101

> <r_epik_Ionization_Penalty_Charging>
1.45058

> <r_epik_Ionization_Penalty_Neutral>
0.000435069

> <r_epik_State_Penalty>
2.35204

> <r_lp_Energy>
50.6367

> <s_epik_Chemistry_Notes>
This compound contains an acetal/aminal-like group ( X-CH(R)-Y where X, Y are N, S, or O) that may be acid/base labile, releasing an aldehyde.

> <s_epik_cmdline>
J2VwaWtfcHl0aG9uJywgJy1waCcsICc3LjAnLCAnLXRuJywgJzgnLCAnLW1hJywgJzIwMCcsICctaW1hZScsICc8aW5maWxlLm1hZT4nLCAnLW9tYWUnLCAnPG91dGZpbGUubWFlPic=

> <s_epik_input>
TzFbQ0gyXVtDSDJdW05IXUMoPU8pYyhbY0hdbjIpYyhbTkhdMyluMltDSF09QyhPW0NIMl1bQ0gyXVtDSDJdNClbQ0BASF0zTjRbQ0gyXWMoYzE1KVtjSF1bY0hdYyhGKVtjSF01

> <s_lp_Force_Field>
OPLS_2005

> <s_lp_Variant>
MCD00066-9

> <s_m_source_file>
MCD00066.smi

$$$$
MCD00066
                    3D
 Schrodinger Suite 2023-4.
 48 52  0  0  1  0            999 V2000
   -1.3762    1.0372   -4.6085 O   0  0  0  0  0  0
   -1.5148    0.9636   -3.3895 C   0  0  0  0  0  0
   -2.0952   -0.0993   -2.8007 N   0  0  0  0  0  0
   -2.6143   -0.1848   -1.4354 C   0  0  0  0  0  0
   -2.3351   -1.5493   -0.7907 C   0  0  0  0  0  0
   -0.9687   -1.6228   -0.4010 O   0  0  0  0  0  0
   -0.6083   -2.5320    0.5739 C   0  0  0  0  0  0
   -1.4463   -3.5942    0.9978 C   0  0  0  0  0  0
   -1.0303   -4.4728    2.0160 C   0  0  0  0  0  0
   -1.8418   -5.4818    2.4112 F   0  0  0  0  0  0
    0.2266   -4.3040    2.6232 C   0  0  0  0  0  0
    1.0730   -3.2625    2.2030 C   0  0  0  0  0  0
    0.6655   -2.3841    1.1768 C   0  0  0  0  0  0
    1.6129   -1.2878    0.7141 C   0  0  0  0  0  0
    1.0735    0.0748    0.9691 N   0  3  1  0  0  0
    1.0390    0.4595    2.4054 C   0  0  0  0  0  0
    2.4199    0.7744    3.0077 C   0  0  0  0  0  0
    3.2748    1.7462    2.1777 C   0  0  0  0  0  0
    2.4994    2.8079    1.6308 O   0  0  0  0  0  0
    1.6555    2.5275    0.5760 C   0  0  0  0  0  0
    0.9145    3.5205    0.0503 C   0  0  0  0  0  0
    0.0500    3.2183   -1.0213 N   0  0  0  0  0  0
   -0.8050    4.1188   -1.5924 N   0  0  0  0  0  0
   -1.4650    3.4211   -2.5363 C   0  0  0  0  0  0
   -1.0175    2.0732   -2.5118 C   0  0  0  0  0  0
   -0.0187    1.9910   -1.5508 C   0  0  0  0  0  0
    0.7672    0.9641   -1.1786 N   0  5  0  0  0  0
    1.5976    1.0935    0.0118 C   0  0  2  0  0  0
   -2.3477   -0.8637   -3.4099 H   0  0  0  0  0  0
   -2.2514    0.6067   -0.7808 H   0  0  0  0  0  0
   -3.6932   -0.0431   -1.5029 H   0  0  0  0  0  0
   -2.9824   -1.6313    0.0839 H   0  0  0  0  0  0
   -2.5852   -2.3666   -1.4685 H   0  0  0  0  0  0
   -2.4151   -3.7588    0.5511 H   0  0  0  0  0  0
    0.5449   -4.9779    3.4049 H   0  0  0  0  0  0
    2.0414   -3.1456    2.6672 H   0  0  0  0  0  0
    2.5949   -1.3976    1.1749 H   0  0  0  0  0  0
    1.7674   -1.4387   -0.3553 H   0  0  0  0  0  0
    0.3794    1.3204    2.5204 H   0  0  0  0  0  0
    0.5633   -0.3321    2.9848 H   0  0  0  0  0  0
    2.2617    1.2030    3.9979 H   0  0  0  0  0  0
    2.9812   -0.1457    3.1714 H   0  0  0  0  0  0
    4.0253    2.1927    2.8304 H   0  0  0  0  0  0
    3.8534    1.2266    1.4150 H   0  0  0  0  0  0
    0.8953    4.5490    0.3796 H   0  0  0  0  0  0
   -2.2153    3.8975   -3.1497 H   0  0  0  0  0  0
    2.6192    0.8289   -0.2585 H   0  0  0  0  0  0
    0.0988    0.0069    0.7127 H   0  0  0  0  0  0
  1  2  2  0  0  0
  2  3  1  0  0  0
  2 25  1  0  0  0
  3  4  1  0  0  0
  3 29  1  0  0  0
  4  5  1  0  0  0
  4 30  1  0  0  0
  4 31  1  0  0  0
  5  6  1  0  0  0
  5 32  1  0  0  0
  5 33  1  0  0  0
  6  7  1  0  0  0
  7  8  2  0  0  0
  7 13  1  0  0  0
  8  9  1  0  0  0
  8 34  1  0  0  0
  9 10  1  0  0  0
  9 11  2  0  0  0
 11 12  1  0  0  0
 11 35  1  0  0  0
 12 13  2  0  0  0
 12 36  1  0  0  0
 13 14  1  0  0  0
 14 15  1  0  0  0
 14 37  1  0  0  0
 14 38  1  0  0  0
 15 16  1  0  0  0
 15 28  1  0  0  0
 15 48  1  0  0  0
 16 17  1  0  0  0
 16 39  1  0  0  0
 16 40  1  0  0  0
 17 18  1  0  0  0
 17 41  1  0  0  0
 17 42  1  0  0  0
 18 19  1  0  0  0
 18 43  1  0  0  0
 18 44  1  0  0  0
 19 20  1  0  0  0
 20 21  2  0  0  0
 20 28  1  0  0  0
 21 22  1  0  0  0
 21 45  1  0  0  0
 22 23  1  0  0  0
 22 26  1  0  0  0
 23 24  2  0  0  0
 24 25  1  0  0  0
 24 46  1  0  0  0
 25 26  2  0  0  0
 26 27  1  0  0  0
 27 28  1  0  0  0
 28 47  1  0  0  0
M  CHG  2  15   1  27  -1
M  END
> <i_epik_Tot_Q>
0

> <i_epik_Tot_abs_Q>
2

> <i_f3d_flags>
0

> <i_lp_mmshare_version>
64135

> <i_m_source_file_index>
1

> <b_lp_Chiralities_Consistent>
1

> <r_epik_Charging_Adjusted_Penalty>
3.80262

> <r_epik_Ionization_Penalty>
1.45101

> <r_epik_Ionization_Penalty_Charging>
1.45058

> <r_epik_Ionization_Penalty_Neutral>
0.000435069

> <r_epik_State_Penalty>
2.35204

> <r_lp_Energy>
49.8774

> <s_epik_Chemistry_Notes>
This compound contains an acetal/aminal-like group ( X-CH(R)-Y where X, Y are N, S, or O) that may be acid/base labile, releasing an aldehyde.

> <s_epik_cmdline>
J2VwaWtfcHl0aG9uJywgJy1waCcsICc3LjAnLCAnLXRuJywgJzgnLCAnLW1hJywgJzIwMCcsICctaW1hZScsICc8aW5maWxlLm1hZT4nLCAnLW9tYWUnLCAnPG91dGZpbGUubWFlPic=

> <s_epik_input>
TzFbQ0gyXVtDSDJdW05IXUMoPU8pYyhbY0hdbjIpYyhbTkhdMyluMltDSF09QyhPW0NIMl1bQ0gyXVtDSDJdNClbQ0BASF0zTjRbQ0gyXWMoYzE1KVtjSF1bY0hdYyhGKVtjSF01

> <s_lp_Force_Field>
OPLS_2005

> <s_lp_Variant>
MCD00066-10

> <s_m_source_file>
MCD00066.smi

$$$$
MCD00067
                    3D
 Schrodinger Suite 2023-4.
 46 50  0  0  1  0            999 V2000
   -0.0241    0.1118   -0.2620 C   0  0  0  0  0  0
    1.4851    0.0511   -0.0036 C   0  0  2  0  0  0
    2.2456    1.1397   -0.7759 C   0  0  0  0  0  0
    3.6686    1.0964   -0.4677 N   0  0  0  0  0  0
    4.5529    2.2202   -0.7954 C   0  0  0  0  0  0
    4.5346    2.6948   -2.2439 C   0  0  0  0  0  0
    3.5777    3.6645   -2.6133 C   0  0  0  0  0  0
    3.5509    4.1840   -3.9188 C   0  0  0  0  0  0
    4.4947    3.7448   -4.8617 C   0  0  0  0  0  0
    4.4852    4.2547   -6.1161 F   0  0  0  0  0  0
    5.4515    2.7771   -4.5039 C   0  0  0  0  0  0
    5.4750    2.2237   -3.1966 C   0  0  0  0  0  0
    6.3726    1.2510   -2.8001 O   0  0  0  0  0  0
    7.2698    0.6947   -3.7575 C   0  0  0  0  0  0
    7.7735   -0.6777   -3.2878 C   0  0  0  0  0  0
    8.5859   -0.5994   -2.0717 N   0  0  0  0  0  0
    8.5021   -1.3767   -0.9734 C   0  0  0  0  0  0
    9.3942   -1.3923   -0.1290 O   0  0  0  0  0  0
    7.2792   -2.2133   -0.8170 C   0  0  0  0  0  0
    7.1767   -3.6175   -0.7804 C   0  0  0  0  0  0
    5.9039   -3.9766   -0.6696 N   0  0  0  0  0  0
    5.2046   -2.7703   -0.6124 N   0  0  0  0  0  0
    3.8518   -2.6467   -0.5191 C   0  0  0  0  0  0
    3.3097   -1.3762   -0.4709 C   0  0  0  0  0  0
    4.2312   -0.2127   -0.5237 C   0  0  0  0  0  0
    5.5660   -0.3969   -0.6025 N   0  0  0  0  0  0
    6.0146   -1.6594   -0.6656 C   0  0  0  0  0  0
    1.9440   -1.2370   -0.3918 O   0  0  0  0  0  0
   -0.4349    1.0773    0.0343 H   0  0  0  0  0  0
   -0.5477   -0.6590    0.3039 H   0  0  0  0  0  0
   -0.2498   -0.0384   -1.3182 H   0  0  0  0  0  0
    1.6604    0.1734    1.0669 H   0  0  0  0  0  0
    2.1033    1.0167   -1.8505 H   0  0  0  0  0  0
    1.8574    2.1235   -0.5107 H   0  0  0  0  0  0
    4.2287    3.0570   -0.1759 H   0  0  0  0  0  0
    5.5819    2.0463   -0.4815 H   0  0  0  0  0  0
    2.8625    4.0221   -1.8870 H   0  0  0  0  0  0
    2.8165    4.9274   -4.1915 H   0  0  0  0  0  0
    6.1618    2.4824   -5.2601 H   0  0  0  0  0  0
    6.7710    0.5221   -4.7110 H   0  0  0  0  0  0
    8.1010    1.3793   -3.9314 H   0  0  0  0  0  0
    6.9268   -1.3571   -3.1992 H   0  0  0  0  0  0
    8.4069   -1.1042   -4.0659 H   0  0  0  0  0  0
    9.3903    0.0085   -2.1271 H   0  0  0  0  0  0
    7.9592   -4.3581   -0.8564 H   0  0  0  0  0  0
    3.2618   -3.5568   -0.4882 H   0  0  0  0  0  0
  1  2  1  0  0  0
  1 29  1  0  0  0
  1 30  1  0  0  0
  1 31  1  0  0  0
  2  3  1  0  0  0
  2 28  1  0  0  0
  2 32  1  0  0  0
  3  4  1  0  0  0
  3 33  1  0  0  0
  3 34  1  0  0  0
  4  5  1  0  0  0
  4 25  1  0  0  0
  5  6  1  0  0  0
  5 35  1  0  0  0
  5 36  1  0  0  0
  6  7  2  0  0  0
  6 12  1  0  0  0
  7  8  1  0  0  0
  7 37  1  0  0  0
  8  9  2  0  0  0
  8 38  1  0  0  0
  9 10  1  0  0  0
  9 11  1  0  0  0
 11 12  2  0  0  0
 11 39  1  0  0  0
 12 13  1  0  0  0
 13 14  1  0  0  0
 14 15  1  0  0  0
 14 40  1  0  0  0
 14 41  1  0  0  0
 15 16  1  0  0  0
 15 42  1  0  0  0
 15 43  1  0  0  0
 16 17  1  0  0  0
 16 44  1  0  0  0
 17 18  2  0  0  0
 17 19  1  0  0  0
 19 20  1  0  0  0
 19 27  2  0  0  0
 20 21  2  0  0  0
 20 45  1  0  0  0
 21 22  1  0  0  0
 22 23  1  0  0  0
 22 27  1  0  0  0
 23 24  2  0  0  0
 23 46  1  0  0  0
 24 25  1  0  0  0
 24 28  1  0  0  0
 25 26  2  0  0  0
 26 27  1  0  0  0
M  END
> <i_epik_Tot_Q>
0

> <i_epik_Tot_abs_Q>
0

> <i_f3d_flags>
0

> <i_lp_mmshare_version>
64135

> <i_m_source_file_index>
1

> <b_lp_Chiralities_Consistent>
1

> <r_epik_Charging_Adjusted_Penalty>
0

> <r_epik_Ionization_Penalty>
8.32463e-06

> <r_epik_Ionization_Penalty_Charging>
0

> <r_epik_Ionization_Penalty_Neutral>
8.32463e-06

> <r_epik_State_Penalty>
-0

> <r_lp_Energy>
53.006

> <r_lp_tautomer_probability>
1

> <s_epik_cmdline>
J2VwaWtfcHl0aG9uJywgJy1waCcsICc3LjAnLCAnLXRuJywgJzgnLCAnLW1hJywgJzIwMCcsICctaW1hZScsICc8aW5maWxlLm1hZT4nLCAnLW9tYWUnLCAnPG91dGZpbGUubWFlPic=

> <s_epik_input>
W0NIM11bQ0BIXShbQ0gyXTEpT2MoYzJOMTMpW2NIXW40YyhuMiljKFtjSF1uNClDKD1PKVtOSF1bQ0gyXVtDSDJdT2M1YyhbQ0gyXTMpW2NIXVtjSF1jKEYpW2NIXTU=

> <s_lp_Force_Field>
OPLS_2005

> <s_lp_Variant>
MCD00067-1

> <s_m_source_file>
MCD00067.smi

$$$$
MCD00068
                    3D
 Schrodinger Suite 2023-4.
 46 50  0  0  1  0            999 V2000
   -0.0414   -0.0380   -0.0275 C   0  0  0  0  0  0
    1.4892    0.0038    0.0206 C   0  0  1  0  0  0
    2.0078    0.7117    1.2834 C   0  0  0  0  0  0
    3.4627    0.8061    1.2646 N   0  0  0  0  0  0
    4.0593    1.8509    0.4312 C   0  0  0  0  0  0
    4.6852    2.9810    1.2285 C   0  0  0  0  0  0
    3.8522    3.9024    1.8978 C   0  0  0  0  0  0
    4.4130    4.9446    2.6596 C   0  0  0  0  0  0
    5.8112    5.0699    2.7562 C   0  0  0  0  0  0
    6.3524    6.0732    3.4870 F   0  0  0  0  0  0
    6.6472    4.1529    2.0912 C   0  0  0  0  0  0
    6.0901    3.1045    1.3241 C   0  0  0  0  0  0
    6.8914    2.2046    0.6658 O   0  0  0  0  0  0
    7.7951    1.5083    1.5073 C   0  0  0  0  0  0
    8.3320    0.2709    0.7743 C   0  0  0  0  0  0
    8.7884   -0.7048    1.7554 N   0  0  0  0  0  0
    8.2693   -1.8929    2.1190 C   0  0  0  0  0  0
    8.7990   -2.5376    3.0211 O   0  0  0  0  0  0
    7.1221   -2.4853    1.3620 C   0  0  0  0  0  0
    7.0829   -3.8050    0.8689 C   0  0  0  0  0  0
    5.9013   -4.0642    0.3324 N   0  0  0  0  0  0
    5.1757   -2.8913    0.5154 N   0  0  0  0  0  0
    3.8803   -2.7293    0.1337 C   0  0  0  0  0  0
    3.2742   -1.5150    0.3720 C   0  0  0  0  0  0
    4.0689   -0.4591    1.0450 C   0  0  0  0  0  0
    5.3487   -0.6739    1.4281 N   0  0  0  0  0  0
    5.8793   -1.8799    1.1427 C   0  0  0  0  0  0
    1.9633   -1.3368   -0.0066 O   0  0  0  0  0  0
   -0.4618    0.9679   -0.0329 H   0  0  0  0  0  0
   -0.4490   -0.5670    0.8343 H   0  0  0  0  0  0
   -0.3883   -0.5477   -0.9264 H   0  0  0  0  0  0
    1.8495    0.5158   -0.8732 H   0  0  0  0  0  0
    1.5863    1.7150    1.3535 H   0  0  0  0  0  0
    1.6922    0.1771    2.1807 H   0  0  0  0  0  0
    4.7881    1.4328   -0.2647 H   0  0  0  0  0  0
    3.2871    2.2898   -0.2013 H   0  0  0  0  0  0
    2.7783    3.8098    1.8311 H   0  0  0  0  0  0
    3.7706    5.6470    3.1697 H   0  0  0  0  0  0
    7.7185    4.2647    2.1658 H   0  0  0  0  0  0
    8.6226    2.1504    1.8114 H   0  0  0  0  0  0
    7.2713    1.2041    2.4168 H   0  0  0  0  0  0
    7.5901   -0.1456    0.0959 H   0  0  0  0  0  0
    9.1737    0.5560    0.1429 H   0  0  0  0  0  0
    9.5999   -0.4154    2.2822 H   0  0  0  0  0  0
    7.8534   -4.5614    0.8991 H   0  0  0  0  0  0
    3.3851   -3.5665   -0.3474 H   0  0  0  0  0  0
  1  2  1  0  0  0
  1 29  1  0  0  0
  1 30  1  0  0  0
  1 31  1  0  0  0
  2  3  1  0  0  0
  2 28  1  0  0  0
  2 32  1  0  0  0
  3  4  1  0  0  0
  3 33  1  0  0  0
  3 34  1  0  0  0
  4  5  1  0  0  0
  4 25  1  0  0  0
  5  6  1  0  0  0
  5 35  1  0  0  0
  5 36  1  0  0  0
  6  7  2  0  0  0
  6 12  1  0  0  0
  7  8  1  0  0  0
  7 37  1  0  0  0
  8  9  2  0  0  0
  8 38  1  0  0  0
  9 10  1  0  0  0
  9 11  1  0  0  0
 11 12  2  0  0  0
 11 39  1  0  0  0
 12 13  1  0  0  0
 13 14  1  0  0  0
 14 15  1  0  0  0
 14 40  1  0  0  0
 14 41  1  0  0  0
 15 16  1  0  0  0
 15 42  1  0  0  0
 15 43  1  0  0  0
 16 17  1  0  0  0
 16 44  1  0  0  0
 17 18  2  0  0  0
 17 19  1  0  0  0
 19 20  1  0  0  0
 19 27  2  0  0  0
 20 21  2  0  0  0
 20 45  1  0  0  0
 21 22  1  0  0  0
 22 23  1  0  0  0
 22 27  1  0  0  0
 23 24  2  0  0  0
 23 46  1  0  0  0
 24 25  1  0  0  0
 24 28  1  0  0  0
 25 26  2  0  0  0
 26 27  1  0  0  0
M  END
> <i_epik_Tot_Q>
0

> <i_epik_Tot_abs_Q>
0

> <i_f3d_flags>
0

> <i_lp_mmshare_version>
64135

> <i_m_source_file_index>
1

> <b_lp_Chiralities_Consistent>
1

> <r_epik_Charging_Adjusted_Penalty>
0

> <r_epik_Ionization_Penalty>
8.32463e-06

> <r_epik_Ionization_Penalty_Charging>
0

> <r_epik_Ionization_Penalty_Neutral>
8.32463e-06

> <r_epik_State_Penalty>
-0

> <r_lp_Energy>
57.2638

> <r_lp_tautomer_probability>
1

> <s_epik_cmdline>
J2VwaWtfcHl0aG9uJywgJy1waCcsICc3LjAnLCAnLXRuJywgJzgnLCAnLW1hJywgJzIwMCcsICctaW1hZScsICc8aW5maWxlLm1hZT4nLCAnLW9tYWUnLCAnPG91dGZpbGUubWFlPic=

> <s_epik_input>
W0NIM11bQ0BASF0oW0NIMl0xKU9jKGMyTjEzKVtjSF1uNGMobjIpYyhbY0hdbjQpQyg9TylbTkhdW0NIMl1bQ0gyXU9jNWMoW0NIMl0zKVtjSF1bY0hdYyhGKVtjSF01

> <s_lp_Force_Field>
OPLS_2005

> <s_lp_Variant>
MCD00068-1

> <s_m_source_file>
MCD00068.smi

$$$$
MCD00069
                    3D
 Schrodinger Suite 2023-4.
 49 53  0  0  1  0            999 V2000
   -0.2499    0.2821   -0.3063 C   0  0  0  0  0  0
    1.2136    0.2211   -0.1577 N   0  0  0  0  0  0
    1.7922   -1.1287    0.0311 C   0  0  0  0  0  0
    0.9719   -2.2749   -0.5331 C   0  0  0  0  0  0
    0.1968   -2.9367    0.3182 N   0  0  0  0  0  0
   -0.4329   -3.8765   -0.4140 N   0  0  0  0  0  0
   -1.3701   -4.7714    0.2303 C   0  0  0  0  0  0
   -0.0555   -3.8327   -1.7357 C   0  0  0  0  0  0
    0.8570   -2.8213   -1.8571 C   0  0  0  0  0  0
    1.5552   -2.4478   -3.1124 C   0  0  0  0  0  0
    1.4863   -3.2889   -4.2524 C   0  0  0  0  0  0
    2.1125   -3.0467   -5.4230 N   0  0  0  0  0  0
    2.8486   -1.9292   -5.4623 C   0  0  0  0  0  0
    3.5993   -1.4877   -6.5070 N   0  0  0  0  0  0
    4.2517   -0.3159   -6.1729 C   0  0  0  0  0  0
    3.8859    0.0030   -4.8872 C   0  0  0  0  0  0
    2.9997   -1.0160   -4.4393 C   0  0  0  0  0  0
    2.3218   -1.2622   -3.2258 C   0  0  0  0  0  0
    4.3291    1.1280   -4.0753 C   0  0  0  0  0  0
    5.6473    1.6411   -3.9485 C   0  0  0  0  0  0
    5.7189    2.5411   -2.9760 N   0  0  0  0  0  0
    4.4575    2.6260   -2.4857 N   0  0  0  0  0  0
    3.5786    1.8247   -3.1796 C   0  0  0  0  0  0
    4.1732    3.4499   -1.3260 C   0  0  0  0  0  0
    4.2192    2.6572    0.0057 C   0  0  0  0  0  0
    3.4757    1.2938    0.0542 C   0  0  0  0  0  0
    1.9445    1.3671   -0.1249 C   0  0  0  0  0  0
    1.4217    2.4772   -0.2350 O   0  0  0  0  0  0
   -0.6767    1.2734   -0.1510 H   0  0  0  0  0  0
   -0.7407   -0.3672    0.4188 H   0  0  0  0  0  0
   -0.5392   -0.0419   -1.3066 H   0  0  0  0  0  0
    2.7986   -1.2051   -0.3747 H   0  0  0  0  0  0
    1.9219   -1.2664    1.1060 H   0  0  0  0  0  0
   -1.8060   -5.4493   -0.5041 H   0  0  0  0  0  0
   -2.1687   -4.1957    0.6990 H   0  0  0  0  0  0
   -0.8556   -5.3576    0.9923 H   0  0  0  0  0  0
   -0.4615   -4.5221   -2.4610 H   0  0  0  0  0  0
    0.9178   -4.2063   -4.2309 H   0  0  0  0  0  0
    3.6850   -1.9550   -7.3979 H   0  0  0  0  0  0
    4.9122    0.1856   -6.8650 H   0  0  0  0  0  0
    2.4181   -0.5611   -2.4184 H   0  0  0  0  0  0
    6.5467    1.3513   -4.4717 H   0  0  0  0  0  0
    2.5311    1.7610   -2.9265 H   0  0  0  0  0  0
    4.8848    4.2763   -1.2931 H   0  0  0  0  0  0
    3.1929    3.9039   -1.4704 H   0  0  0  0  0  0
    5.2665    2.4653    0.2410 H   0  0  0  0  0  0
    3.8588    3.2980    0.8114 H   0  0  0  0  0  0
    3.9045    0.6355   -0.7000 H   0  0  0  0  0  0
    3.6752    0.8240    1.0178 H   0  0  0  0  0  0
  1  2  1  0  0  0
  1 29  1  0  0  0
  1 30  1  0  0  0
  1 31  1  0  0  0
  2  3  1  0  0  0
  2 27  1  0  0  0
  3  4  1  0  0  0
  3 32  1  0  0  0
  3 33  1  0  0  0
  4  5  2  0  0  0
  4  9  1  0  0  0
  5  6  1  0  0  0
  6  7  1  0  0  0
  6  8  1  0  0  0
  7 34  1  0  0  0
  7 35  1  0  0  0
  7 36  1  0  0  0
  8  9  2  0  0  0
  8 37  1  0  0  0
  9 10  1  0  0  0
 10 11  2  0  0  0
 10 18  1  0  0  0
 11 12  1  0  0  0
 11 38  1  0  0  0
 12 13  2  0  0  0
 13 14  1  0  0  0
 13 17  1  0  0  0
 14 15  1  0  0  0
 14 39  1  0  0  0
 15 16  2  0  0  0
 15 40  1  0  0  0
 16 17  1  0  0  0
 16 19  1  0  0  0
 17 18  2  0  0  0
 18 41  1  0  0  0
 19 20  1  0  0  0
 19 23  2  0  0  0
 20 21  2  0  0  0
 20 42  1  0  0  0
 21 22  1  0  0  0
 22 23  1  0  0  0
 22 24  1  0  0  0
 23 43  1  0  0  0
 24 25  1  0  0  0
 24 44  1  0  0  0
 24 45  1  0  0  0
 25 26  1  0  0  0
 25 46  1  0  0  0
 25 47  1  0  0  0
 26 27  1  0  0  0
 26 48  1  0  0  0
 26 49  1  0  0  0
 27 28  2  0  0  0
M  END
> <i_epik_Tot_Q>
0

> <i_epik_Tot_abs_Q>
0

> <i_f3d_flags>
0

> <i_lp_mmshare_version>
64135

> <i_m_source_file_index>
1

> <b_lp_Chiralities_Consistent>
1

> <r_epik_Charging_Adjusted_Penalty>
0.00130885

> <r_epik_Ionization_Penalty>
0.00144823

> <r_epik_Ionization_Penalty_Charging>
0

> <r_epik_Ionization_Penalty_Neutral>
0.00144823

> <r_epik_State_Penalty>
0.00130885

> <r_lp_Energy>
23.1479

> <r_lp_tautomer_probability>
0.999998

> <s_epik_cmdline>
J2VwaWtfcHl0aG9uJywgJy1waCcsICc3LjAnLCAnLXRuJywgJzgnLCAnLW1hJywgJzIwMCcsICctaW1hZScsICc8aW5maWxlLm1hZT4nLCAnLW9tYWUnLCAnPG91dGZpbGUubWFlPic=

> <s_epik_input>
W0NIM11OKFtDSDJdMSlDKD1PKVtDSDJdW0NIMl1bQ0gyXW4oW2NIXTIpbltjSF1jMmMoW2NIXVtuSF0zKWMoW2NIXTQpYzNuW2NIXWM0YyhjMTUpW2NIXW4objUpW0NIM10=

> <s_lp_Force_Field>
OPLS_2005

> <s_lp_Variant>
MCD00069-1

> <s_m_source_file>
MCD00069.smi

$$$$
MCD00070
                    3D
 Schrodinger Suite 2023-4.
 49 51  0  0  1  0            999 V2000
    0.1719    0.0665   -0.3939 N   0  0  0  0  0  0
    1.5530    0.0033   -0.2095 C   0  0  0  0  0  0
    2.1938   -1.2499   -0.1776 C   0  0  0  0  0  0
    3.5946   -1.3319   -0.0372 C   0  0  0  0  0  0
    4.3480   -0.1526    0.1437 C   0  0  0  0  0  0
    3.7098    1.1031    0.1074 C   0  0  0  0  0  0
    2.3167    1.1865   -0.1004 C   0  0  0  0  0  0
    1.7150    2.4128   -0.2425 O   0  0  0  0  0  0
    1.8036    3.0480   -1.4653 C   0  0  0  0  0  0
    1.9693    2.3275   -2.6728 C   0  0  0  0  0  0
    2.0814    2.9947   -3.9076 C   0  0  0  0  0  0
    1.9982    4.3994   -3.9493 C   0  0  0  0  0  0
    1.8114    5.1306   -2.7596 C   0  0  0  0  0  0
    1.7061    7.0318   -2.8543 Br  0  0  0  0  0  0
    1.7166    4.4579   -1.5189 C   0  0  0  0  0  0
    1.5450    5.1701   -0.3646 O   0  5  0  0  0  0
    2.3422    2.1838   -5.1632 C   0  0  0  0  0  0
    3.8394    1.8540   -5.2935 C   0  0  0  0  0  0
    4.1067    0.7369   -6.1975 N   0  0  0  0  0  0
    4.1715   -0.5697   -5.8744 C   0  0  0  0  0  0
    4.5414   -1.4082   -6.6930 O   0  0  0  0  0  0
    3.7305   -1.0329   -4.4772 C   0  0  0  0  0  0
    4.8294   -0.8927   -3.4059 C   0  0  0  0  0  0
    5.6789   -2.0699   -3.2662 N   0  0  0  0  0  0
    5.5433   -3.0711   -2.3782 C   0  0  0  0  0  0
    6.4423   -3.8941   -2.2201 O   0  0  0  0  0  0
    4.2337   -3.2442   -1.5917 C   0  0  0  0  0  0
    4.2767   -2.6843   -0.1496 C   0  0  0  0  0  0
   -0.3136    0.9513   -0.3444 H   0  0  0  0  0  0
   -0.3976   -0.7671   -0.3864 H   0  0  0  0  0  0
    1.6148   -2.1531   -0.3051 H   0  0  0  0  0  0
    5.4211   -0.2028    0.2569 H   0  0  0  0  0  0
    4.2944    2.0068    0.1991 H   0  0  0  0  0  0
    2.0337    1.2501   -2.6646 H   0  0  0  0  0  0
    2.0877    4.9215   -4.8906 H   0  0  0  0  0  0
    1.7408    1.2759   -5.1156 H   0  0  0  0  0  0
    1.9973    2.7295   -6.0421 H   0  0  0  0  0  0
    4.3773    2.7321   -5.6518 H   0  0  0  0  0  0
    4.2597    1.6430   -4.3119 H   0  0  0  0  0  0
    4.3596    0.9852   -7.1432 H   0  0  0  0  0  0
    2.8558   -0.4620   -4.1714 H   0  0  0  0  0  0
    3.3850   -2.0661   -4.5322 H   0  0  0  0  0  0
    5.4936   -0.0590   -3.6318 H   0  0  0  0  0  0
    4.3672   -0.6332   -2.4601 H   0  0  0  0  0  0
    6.5320   -2.0595   -3.8067 H   0  0  0  0  0  0
    3.3742   -2.8741   -2.1510 H   0  0  0  0  0  0
    4.0735   -4.3208   -1.5223 H   0  0  0  0  0  0
    3.7627   -3.3727    0.5222 H   0  0  0  0  0  0
    5.3014   -2.6185    0.2201 H   0  0  0  0  0  0
  1  2  1  0  0  0
  1 29  1  0  0  0
  1 30  1  0  0  0
  2  3  2  0  0  0
  2  7  1  0  0  0
  3  4  1  0  0  0
  3 31  1  0  0  0
  4  5  2  0  0  0
  4 28  1  0  0  0
  5  6  1  0  0  0
  5 32  1  0  0  0
  6  7  2  0  0  0
  6 33  1  0  0  0
  7  8  1  0  0  0
  8  9  1  0  0  0
  9 10  2  0  0  0
  9 15  1  0  0  0
 10 11  1  0  0  0
 10 34  1  0  0  0
 11 12  2  0  0  0
 11 17  1  0  0  0
 12 13  1  0  0  0
 12 35  1  0  0  0
 13 14  1  0  0  0
 13 15  2  0  0  0
 15 16  1  0  0  0
 17 18  1  0  0  0
 17 36  1  0  0  0
 17 37  1  0  0  0
 18 19  1  0  0  0
 18 38  1  0  0  0
 18 39  1  0  0  0
 19 20  1  0  0  0
 19 40  1  0  0  0
 20 21  2  0  0  0
 20 22  1  0  0  0
 22 23  1  0  0  0
 22 41  1  0  0  0
 22 42  1  0  0  0
 23 24  1  0  0  0
 23 43  1  0  0  0
 23 44  1  0  0  0
 24 25  1  0  0  0
 24 45  1  0  0  0
 25 26  2  0  0  0
 25 27  1  0  0  0
 27 28  1  0  0  0
 27 46  1  0  0  0
 27 47  1  0  0  0
 28 48  1  0  0  0
 28 49  1  0  0  0
M  CHG  1  16  -1
M  END
> <i_epik_Tot_Q>
-1

> <i_epik_Tot_abs_Q>
1

> <i_f3d_flags>
0

> <i_lp_mmshare_version>
64135

> <i_m_source_file_index>
1

> <b_lp_Chiralities_Consistent>
1

> <r_epik_Charging_Adjusted_Penalty>
0.597832

> <r_epik_Ionization_Penalty>
0.465355

> <r_epik_Ionization_Penalty_Charging>
0.465345

> <r_epik_Ionization_Penalty_Neutral>
1.07101e-05

> <r_epik_State_Penalty>
0.132487

> <r_lp_Energy>
26.4393

> <s_epik_cmdline>
J2VwaWtfcHl0aG9uJywgJy1waCcsICc3LjAnLCAnLXRuJywgJzgnLCAnLW1hJywgJzIwMCcsICctaW1hZScsICc8aW5maWxlLm1hZT4nLCAnLW9tYWUnLCAnPG91dGZpbGUubWFlPic=

> <s_epik_input>
YzEyW2NIXWMoW05IMl0pYyhbY0hdW2NIXTEpT2MzW2NIXWMoW2NIXWMoQnIpYzNbT0hdKVtDSDJdW0NIMl1bTkhdQyg9TylbQ0gyXVtDSDJdW05IXUMoPU8pW0NIMl1bQ0gyXTI=

> <s_lp_Force_Field>
OPLS_2005

> <s_lp_Variant>
MCD00070-1

> <s_m_source_file>
MCD00070.smi

$$$$
MCD00070
                    3D
 Schrodinger Suite 2023-4.
 50 52  0  0  1  0            999 V2000
    0.0875   -0.0332   -0.1782 N   0  0  0  0  0  0
    1.4778   -0.0027   -0.0718 C   0  0  0  0  0  0
    2.2035   -1.2104   -0.0817 C   0  0  0  0  0  0
    3.6130   -1.1935   -0.0364 C   0  0  0  0  0  0
    4.2929    0.0344    0.0965 C   0  0  0  0  0  0
    3.5716    1.2421    0.1071 C   0  0  0  0  0  0
    2.1662    1.2300   -0.0175 C   0  0  0  0  0  0
    1.4886    2.4111   -0.2004 O   0  0  0  0  0  0
    1.6872    3.0336   -1.4137 C   0  0  0  0  0  0
    1.7608    2.2798   -2.6073 C   0  0  0  0  0  0
    2.0828    2.8886   -3.8377 C   0  0  0  0  0  0
    2.2524    4.2876   -3.8802 C   0  0  0  0  0  0
    2.1306    5.0592   -2.7066 C   0  0  0  0  0  0
    2.3679    6.9472   -2.8042 Br  0  0  0  0  0  0
    1.8584    4.4324   -1.4706 C   0  0  0  0  0  0
    1.7763    5.1715   -0.3251 O   0  0  0  0  0  0
    2.2872    2.0638   -5.1050 C   0  0  0  0  0  0
    2.5115    0.5571   -4.8622 C   0  0  0  0  0  0
    2.9133   -0.1265   -6.0823 N   0  0  0  0  0  0
    3.1753   -1.4378   -6.2217 C   0  0  0  0  0  0
    3.5850   -1.8812   -7.2924 O   0  0  0  0  0  0
    2.9392   -2.4143   -5.0526 C   0  0  0  0  0  0
    4.2115   -3.1773   -4.6316 C   0  0  0  0  0  0
    5.1568   -2.3147   -3.9260 N   0  0  0  0  0  0
    5.3097   -2.1754   -2.5969 C   0  0  0  0  0  0
    6.1574   -1.4067   -2.1472 O   0  0  0  0  0  0
    4.4285   -3.0026   -1.6395 C   0  0  0  0  0  0
    4.3914   -2.4898   -0.1810 C   0  0  0  0  0  0
   -0.4556    0.8134   -0.0855 H   0  0  0  0  0  0
   -0.4192   -0.9049   -0.1207 H   0  0  0  0  0  0
    1.6814   -2.1521   -0.1714 H   0  0  0  0  0  0
    5.3720    0.0576    0.1412 H   0  0  0  0  0  0
    4.1024    2.1820    0.1483 H   0  0  0  0  0  0
    1.6108    1.2135   -2.5567 H   0  0  0  0  0  0
    2.4897    4.7735   -4.8154 H   0  0  0  0  0  0
    1.5997    4.6430    0.4382 H   0  0  0  0  0  0
    1.4260    2.2104   -5.7577 H   0  0  0  0  0  0
    3.1499    2.4737   -5.6323 H   0  0  0  0  0  0
    3.2944    0.4091   -4.1158 H   0  0  0  0  0  0
    1.5935    0.1057   -4.4840 H   0  0  0  0  0  0
    3.0608    0.4586   -6.8921 H   0  0  0  0  0  0
    2.4942   -1.9357   -4.1819 H   0  0  0  0  0  0
    2.1985   -3.1377   -5.3948 H   0  0  0  0  0  0
    3.9467   -4.0495   -4.0336 H   0  0  0  0  0  0
    4.7184   -3.5786   -5.5100 H   0  0  0  0  0  0
    5.7655   -1.7601   -4.5109 H   0  0  0  0  0  0
    3.4087   -3.0621   -2.0205 H   0  0  0  0  0  0
    4.8216   -4.0196   -1.6430 H   0  0  0  0  0  0
    3.9195   -3.2416    0.4522 H   0  0  0  0  0  0
    5.4013   -2.3655    0.2125 H   0  0  0  0  0  0
  1  2  1  0  0  0
  1 29  1  0  0  0
  1 30  1  0  0  0
  2  3  2  0  0  0
  2  7  1  0  0  0
  3  4  1  0  0  0
  3 31  1  0  0  0
  4  5  2  0  0  0
  4 28  1  0  0  0
  5  6  1  0  0  0
  5 32  1  0  0  0
  6  7  2  0  0  0
  6 33  1  0  0  0
  7  8  1  0  0  0
  8  9  1  0  0  0
  9 10  2  0  0  0
  9 15  1  0  0  0
 10 11  1  0  0  0
 10 34  1  0  0  0
 11 12  2  0  0  0
 11 17  1  0  0  0
 12 13  1  0  0  0
 12 35  1  0  0  0
 13 14  1  0  0  0
 13 15  2  0  0  0
 15 16  1  0  0  0
 16 36  1  0  0  0
 17 18  1  0  0  0
 17 37  1  0  0  0
 17 38  1  0  0  0
 18 19  1  0  0  0
 18 39  1  0  0  0
 18 40  1  0  0  0
 19 20  1  0  0  0
 19 41  1  0  0  0
 20 21  2  0  0  0
 20 22  1  0  0  0
 22 23  1  0  0  0
 22 42  1  0  0  0
 22 43  1  0  0  0
 23 24  1  0  0  0
 23 44  1  0  0  0
 23 45  1  0  0  0
 24 25  1  0  0  0
 24 46  1  0  0  0
 25 26  2  0  0  0
 25 27  1  0  0  0
 27 28  1  0  0  0
 27 47  1  0  0  0
 27 48  1  0  0  0
 28 49  1  0  0  0
 28 50  1  0  0  0
M  END
> <i_epik_Tot_Q>
0

> <i_epik_Tot_abs_Q>
0

> <i_f3d_flags>
0

> <i_lp_mmshare_version>
64135

> <i_m_source_file_index>
1

> <b_lp_Chiralities_Consistent>
1

> <r_epik_Charging_Adjusted_Penalty>
0.953808

> <r_epik_Ionization_Penalty>
0.366084

> <r_epik_Ionization_Penalty_Charging>
0

> <r_epik_Ionization_Penalty_Neutral>
0.366084

> <r_epik_State_Penalty>
0.953808

> <r_lp_Energy>
22.1298

> <r_lp_tautomer_probability>
1

> <s_epik_cmdline>
J2VwaWtfcHl0aG9uJywgJy1waCcsICc3LjAnLCAnLXRuJywgJzgnLCAnLW1hJywgJzIwMCcsICctaW1hZScsICc8aW5maWxlLm1hZT4nLCAnLW9tYWUnLCAnPG91dGZpbGUubWFlPic=

> <s_epik_input>
YzEyW2NIXWMoW05IMl0pYyhbY0hdW2NIXTEpT2MzW2NIXWMoW2NIXWMoQnIpYzNbT0hdKVtDSDJdW0NIMl1bTkhdQyg9TylbQ0gyXVtDSDJdW05IXUMoPU8pW0NIMl1bQ0gyXTI=

> <s_lp_Force_Field>
OPLS_2005

> <s_lp_Variant>
MCD00070-2

> <s_m_source_file>
MCD00070.smi

$$$$
MCD00071
                    3D
 Schrodinger Suite 2023-4.
 47 50  0  0  1  0            999 V2000
    0.3516   -0.0089    0.9358 C   0  0  0  0  0  0
    1.5769   -0.1328    0.1586 N   0  0  0  0  0  0
    2.1479   -1.4640   -0.0680 C   0  0  0  0  0  0
    1.7690   -2.0704   -1.4131 C   0  0  0  0  0  0
    0.4822   -2.6357   -1.5396 C   0  0  0  0  0  0
    0.0451   -3.1535   -2.7699 C   0  0  0  0  0  0
    0.8968   -3.1051   -3.8848 C   0  0  0  0  0  0
    0.4807   -3.5996   -5.0747 F   0  0  0  0  0  0
    2.1833   -2.5472   -3.7671 C   0  0  0  0  0  0
    2.6461   -2.0239   -2.5302 C   0  0  0  0  0  0
    3.9125   -1.4872   -2.3615 O   0  0  0  0  0  0
    4.5724   -0.9346   -3.5025 C   0  0  0  0  0  0
    6.0584   -0.5763   -3.2394 C   0  0  0  0  0  0
    6.8267   -1.8748   -2.9256 C   0  0  0  0  0  0
    6.6625    0.0418   -4.5199 C   0  0  0  0  0  0
    6.3017    0.3284   -2.1017 N   0  0  0  0  0  0
    6.0560    1.6471   -1.9590 C   0  0  0  0  0  0
    6.8045    2.3653   -1.3007 O   0  0  0  0  0  0
    4.7878    2.1855   -2.5108 C   0  0  0  0  0  0
    4.5859    3.1454   -3.5225 C   0  0  0  0  0  0
    3.2874    3.3809   -3.6721 N   0  0  0  0  0  0
    2.6748    2.5700   -2.7156 N   0  0  0  0  0  0
    1.3341    2.4655   -2.4916 C   0  0  0  0  0  0
    0.9115    1.5812   -1.5148 C   0  0  0  0  0  0
   -0.4166    1.4069   -1.3131 F   0  0  0  0  0  0
    1.8972    0.8428   -0.7763 C   0  0  0  0  0  0
    3.2026    0.9964   -0.9828 N   0  0  0  0  0  0
    3.5638    1.8337   -1.9669 C   0  0  0  0  0  0
    0.1473    1.0332    1.1840 H   0  0  0  0  0  0
    0.4420   -0.5606    1.8717 H   0  0  0  0  0  0
   -0.4986   -0.4125    0.3857 H   0  0  0  0  0  0
    3.2327   -1.4271    0.0384 H   0  0  0  0  0  0
    1.8028   -2.1348    0.7196 H   0  0  0  0  0  0
   -0.1819   -2.6619   -0.6881 H   0  0  0  0  0  0
   -0.9425   -3.5815   -2.8589 H   0  0  0  0  0  0
    2.7929   -2.5536   -4.6551 H   0  0  0  0  0  0
    4.5894   -1.6505   -4.3215 H   0  0  0  0  0  0
    4.0117   -0.0741   -3.8662 H   0  0  0  0  0  0
    6.7389   -2.5987   -3.7365 H   0  0  0  0  0  0
    6.4498   -2.3518   -2.0199 H   0  0  0  0  0  0
    7.8901   -1.6833   -2.7749 H   0  0  0  0  0  0
    6.6081   -0.6527   -5.3589 H   0  0  0  0  0  0
    7.7127    0.3020   -4.3810 H   0  0  0  0  0  0
    6.1360    0.9477   -4.8206 H   0  0  0  0  0  0
    7.0420   -0.0045   -1.5009 H   0  0  0  0  0  0
    5.3181    3.6553   -4.1312 H   0  0  0  0  0  0
    0.6658    3.0593   -3.1063 H   0  0  0  0  0  0
  1  2  1  0  0  0
  1 29  1  0  0  0
  1 30  1  0  0  0
  1 31  1  0  0  0
  2  3  1  0  0  0
  2 26  1  0  0  0
  3  4  1  0  0  0
  3 32  1  0  0  0
  3 33  1  0  0  0
  4  5  2  0  0  0
  4 10  1  0  0  0
  5  6  1  0  0  0
  5 34  1  0  0  0
  6  7  2  0  0  0
  6 35  1  0  0  0
  7  8  1  0  0  0
  7  9  1  0  0  0
  9 10  2  0  0  0
  9 36  1  0  0  0
 10 11  1  0  0  0
 11 12  1  0  0  0
 12 13  1  0  0  0
 12 37  1  0  0  0
 12 38  1  0  0  0
 13 14  1  0  0  0
 13 15  1  0  0  0
 13 16  1  0  0  0
 14 39  1  0  0  0
 14 40  1  0  0  0
 14 41  1  0  0  0
 15 42  1  0  0  0
 15 43  1  0  0  0
 15 44  1  0  0  0
 16 17  1  0  0  0
 16 45  1  0  0  0
 17 18  2  0  0  0
 17 19  1  0  0  0
 19 20  1  0  0  0
 19 28  2  0  0  0
 20 21  2  0  0  0
 20 46  1  0  0  0
 21 22  1  0  0  0
 22 23  1  0  0  0
 22 28  1  0  0  0
 23 24  2  0  0  0
 23 47  1  0  0  0
 24 25  1  0  0  0
 24 26  1  0  0  0
 26 27  2  0  0  0
 27 28  1  0  0  0
M  END
> <i_epik_Tot_Q>
0

> <i_epik_Tot_abs_Q>
0

> <i_f3d_flags>
0

> <i_lp_mmshare_version>
64135

> <i_m_source_file_index>
1

> <b_lp_Chiralities_Consistent>
1

> <r_epik_Charging_Adjusted_Penalty>
0

> <r_epik_Ionization_Penalty>
7.67834e-06

> <r_epik_Ionization_Penalty_Charging>
0

> <r_epik_Ionization_Penalty_Neutral>
7.67834e-06

> <r_epik_State_Penalty>
-0

> <r_lp_Energy>
57.6406

> <r_lp_tautomer_probability>
1

> <s_epik_cmdline>
J2VwaWtfcHl0aG9uJywgJy1waCcsICc3LjAnLCAnLXRuJywgJzgnLCAnLW1hJywgJzIwMCcsICctaW1hZScsICc8aW5maWxlLm1hZT4nLCAnLW9tYWUnLCAnPG91dGZpbGUubWFlPic=

> <s_epik_input>
W0NIM11OKFtDSDJdMSljKG4yKWMoRilbY0hdbihuW2NIXTMpYzJjM0MoPU8pW05IXUMoW0NIM10pKFtDSDNdKVtDSDJdT2MoYzE0KVtjSF1jKEYpW2NIXVtjSF00

> <s_lp_Force_Field>
OPLS_2005

> <s_lp_Variant>
MCD00071-1

> <s_m_source_file>
MCD00071.smi

$$$$
MCD00072
                    3D
 Schrodinger Suite 2023-4.
 50 53  0  0  1  0            999 V2000
   -0.1455   -0.2709    0.0213 C   0  0  0  0  0  0
    1.3752   -0.0963    0.0558 C   0  0  0  0  0  0
    2.0704   -1.1129    0.0739 O   0  0  0  0  0  0
    1.9096    1.1514    0.0799 N   0  0  0  0  0  0
    1.1115    2.3872   -0.0692 C   0  0  0  0  0  0
    0.7322    3.0130    1.2512 C   0  0  0  0  0  0
   -0.3182    2.8533    2.1698 C   0  0  0  0  0  0
   -0.0792    3.6083    3.2349 N   0  0  0  0  0  0
    1.1460    4.2286    2.9627 N   0  0  0  0  0  0
    1.8212    5.0477    3.8180 C   0  0  0  0  0  0
    3.0504    5.5251    3.4059 C   0  0  0  0  0  0
    3.5286    5.1725    2.1096 C   0  0  0  0  0  0
    2.8451    4.3989    1.2665 N   0  0  0  0  0  0
    1.6712    3.9218    1.7216 C   0  0  0  0  0  0
    4.7820    5.6018    1.7142 N   0  0  0  0  0  0
    4.8997    6.1032    0.3485 C   0  0  0  0  0  0
    5.8954    4.8539    2.3011 C   0  0  0  0  0  0
    6.5632    3.8494    1.3677 C   0  0  0  0  0  0
    7.7490    4.2301    0.7043 C   0  0  0  0  0  0
    8.3790    3.3498   -0.1924 C   0  0  0  0  0  0
    9.5146    3.7249   -0.8275 F   0  0  0  0  0  0
    7.8238    2.0811   -0.4306 C   0  0  0  0  0  0
    6.6442    1.6914    0.2304 C   0  0  0  0  0  0
    6.0009    2.5672    1.1426 C   0  0  0  0  0  0
    4.8518    2.2412    1.8371 O   0  0  0  0  0  0
    4.0872    1.0890    1.4779 C   0  0  1  0  0  0
    3.1923    0.8020    2.6975 C   0  0  0  0  0  0
    3.3750    1.3345    0.1079 C   0  0  0  0  0  0
   -0.6252    0.3029    0.8128 H   0  0  0  0  0  0
   -0.4126   -1.3183    0.1673 H   0  0  0  0  0  0
   -0.5500    0.0422   -0.9414 H   0  0  0  0  0  0
    1.6418    3.0964   -0.7061 H   0  0  0  0  0  0
    0.2058    2.1944   -0.6428 H   0  0  0  0  0  0
   -1.1925    2.2221    2.1149 H   0  0  0  0  0  0
    1.3764    5.2567    4.7855 H   0  0  0  0  0  0
    3.6390    6.1550    4.0654 H   0  0  0  0  0  0
    4.0888    6.7952    0.1191 H   0  0  0  0  0  0
    4.8700    5.2868   -0.3740 H   0  0  0  0  0  0
    5.8423    6.6362    0.2223 H   0  0  0  0  0  0
    6.6415    5.5759    2.6343 H   0  0  0  0  0  0
    5.5731    4.3301    3.2025 H   0  0  0  0  0  0
    8.1751    5.2078    0.8752 H   0  0  0  0  0  0
    8.3038    1.4033   -1.1209 H   0  0  0  0  0  0
    6.2581    0.7079    0.0159 H   0  0  0  0  0  0
    4.7358    0.2174    1.3946 H   0  0  0  0  0  0
    2.6209   -0.1173    2.5788 H   0  0  0  0  0  0
    2.4952    1.6115    2.8979 H   0  0  0  0  0  0
    3.8023    0.6780    3.5925 H   0  0  0  0  0  0
    3.6268    2.3292   -0.2573 H   0  0  0  0  0  0
    3.8231    0.6782   -0.6399 H   0  0  0  0  0  0
  1  2  1  0  0  0
  1 29  1  0  0  0
  1 30  1  0  0  0
  1 31  1  0  0  0
  2  3  2  0  0  0
  2  4  1  0  0  0
  4  5  1  0  0  0
  4 28  1  0  0  0
  5  6  1  0  0  0
  5 32  1  0  0  0
  5 33  1  0  0  0
  6  7  1  0  0  0
  6 14  2  0  0  0
  7  8  2  0  0  0
  7 34  1  0  0  0
  8  9  1  0  0  0
  9 10  1  0  0  0
  9 14  1  0  0  0
 10 11  2  0  0  0
 10 35  1  0  0  0
 11 12  1  0  0  0
 11 36  1  0  0  0
 12 13  2  0  0  0
 12 15  1  0  0  0
 13 14  1  0  0  0
 15 16  1  0  0  0
 15 17  1  0  0  0
 16 37  1  0  0  0
 16 38  1  0  0  0
 16 39  1  0  0  0
 17 18  1  0  0  0
 17 40  1  0  0  0
 17 41  1  0  0  0
 18 19  2  0  0  0
 18 24  1  0  0  0
 19 20  1  0  0  0
 19 42  1  0  0  0
 20 21  1  0  0  0
 20 22  2  0  0  0
 22 23  1  0  0  0
 22 43  1  0  0  0
 23 24  2  0  0  0
 23 44  1  0  0  0
 24 25  1  0  0  0
 25 26  1  0  0  0
 26 27  1  0  0  0
 26 28  1  0  0  0
 26 45  1  0  0  0
 27 46  1  0  0  0
 27 47  1  0  0  0
 27 48  1  0  0  0
 28 49  1  0  0  0
 28 50  1  0  0  0
M  END
> <i_epik_Tot_Q>
0

> <i_epik_Tot_abs_Q>
0

> <i_f3d_flags>
0

> <i_lp_mmshare_version>
64135

> <i_m_source_file_index>
1

> <b_lp_Chiralities_Consistent>
1

> <r_epik_Charging_Adjusted_Penalty>
0

> <r_epik_Ionization_Penalty>
2.07328e-06

> <r_epik_Ionization_Penalty_Charging>
0

> <r_epik_Ionization_Penalty_Neutral>
2.07328e-06

> <r_epik_State_Penalty>
-0

> <r_lp_Energy>
56.2848

> <r_lp_tautomer_probability>
1

> <s_epik_cmdline>
J2VwaWtfcHl0aG9uJywgJy1waCcsICc3LjAnLCAnLXRuJywgJzgnLCAnLW1hJywgJzIwMCcsICctaW1hZScsICc8aW5maWxlLm1hZT4nLCAnLW9tYWUnLCAnPG91dGZpbGUubWFlPic=

> <s_epik_input>
W0NIM11DKD1PKU4oW0NIMl0xKVtDSDJdW0NASF0oW0NIM10pT2MoW2NIXVtjSF1jKEYpW2NIXTIpYzJbQ0gyXU4oW0NIM10pYyhuMylbY0hdW2NIXW4oYzNjMTQpbltjSF00

> <s_lp_Force_Field>
OPLS_2005

> <s_lp_Variant>
MCD00072-1

> <s_m_source_file>
MCD00072.smi

$$$$
MCD00073
                    3D
 Schrodinger Suite 2023-4.
 48 51  0  0  1  0            999 V2000
   -2.1489    2.1844   -5.2727 C   0  0  0  0  0  0
   -3.0151    2.4871   -4.1380 N   0  0  0  0  0  0
   -2.9108    3.7708   -3.4393 C   0  0  0  0  0  0
   -1.5438    4.4413   -3.5018 C   0  0  0  0  0  0
   -1.2779    5.3500   -4.5485 C   0  0  0  0  0  0
   -0.0136    5.9549   -4.6638 C   0  0  0  0  0  0
    0.2339    6.8224   -5.6737 F   0  0  0  0  0  0
    0.9929    5.6558   -3.7292 C   0  0  0  0  0  0
    0.7341    4.7551   -2.6791 C   0  0  0  0  0  0
   -0.5347    4.1383   -2.5543 C   0  0  0  0  0  0
   -0.8296    3.2784   -1.5201 O   0  0  0  0  0  0
    0.1656    2.3190   -1.1823 C   0  0  0  0  0  0
   -0.3701    1.4287   -0.0451 C   0  0  0  0  0  0
    0.1850    0.0568   -0.0656 N   0  0  2  0  0  0
    1.8723   -0.1591    0.3078 S   0  0  0  0  0  0
    2.0422    0.5703    1.9891 C   0  0  0  0  0  0
    2.1222   -1.6041    0.4231 O   0  0  0  0  0  0
    2.6599    0.6401   -0.6428 O   0  0  0  0  0  0
   -0.3987   -0.8274   -1.0982 C   0  0  0  0  0  0
   -1.8839   -1.0922   -1.1040 C   0  0  0  0  0  0
   -2.7409   -1.9629   -0.4131 C   0  0  0  0  0  0
   -3.9948   -1.6981   -0.7596 N   0  0  0  0  0  0
   -3.8961   -0.6365   -1.6680 N   0  0  0  0  0  0
   -4.9502    0.0053   -2.2481 C   0  0  0  0  0  0
   -4.6677    1.0651   -3.0886 C   0  0  0  0  0  0
   -3.3057    1.4125   -3.3226 C   0  0  0  0  0  0
   -2.2792    0.7686   -2.7680 N   0  0  0  0  0  0
   -2.5987   -0.2432   -1.9383 C   0  0  0  0  0  0
   -2.4607    1.2601   -5.7603 H   0  0  0  0  0  0
   -1.1116    2.0705   -4.9558 H   0  0  0  0  0  0
   -2.1969    2.9841   -6.0121 H   0  0  0  0  0  0
   -3.6475    4.4443   -3.8784 H   0  0  0  0  0  0
   -3.2018    3.6632   -2.3930 H   0  0  0  0  0  0
   -2.0437    5.5763   -5.2760 H   0  0  0  0  0  0
    1.9634    6.1224   -3.8130 H   0  0  0  0  0  0
    1.5207    4.5653   -1.9654 H   0  0  0  0  0  0
    0.3976    1.7359   -2.0738 H   0  0  0  0  0  0
    1.0894    2.7893   -0.8484 H   0  0  0  0  0  0
   -0.1631    1.8964    0.9162 H   0  0  0  0  0  0
   -1.4565    1.3742   -0.0924 H   0  0  0  0  0  0
    3.0497    0.3833    2.3605 H   0  0  0  0  0  0
    1.3192    0.1095    2.6617 H   0  0  0  0  0  0
    1.8749    1.6458    1.9486 H   0  0  0  0  0  0
   -0.0538   -0.4902   -2.0759 H   0  0  0  0  0  0
    0.0778   -1.8012   -0.9952 H   0  0  0  0  0  0
   -2.5058   -2.7272    0.3129 H   0  0  0  0  0  0
   -5.9524   -0.3324   -2.0053 H   0  0  0  0  0  0
   -5.4739    1.6191   -3.5585 H   0  0  0  0  0  0
  1  2  1  0  0  0
  1 29  1  0  0  0
  1 30  1  0  0  0
  1 31  1  0  0  0
  2  3  1  0  0  0
  2 26  1  0  0  0
  3  4  1  0  0  0
  3 32  1  0  0  0
  3 33  1  0  0  0
  4  5  2  0  0  0
  4 10  1  0  0  0
  5  6  1  0  0  0
  5 34  1  0  0  0
  6  7  1  0  0  0
  6  8  2  0  0  0
  8  9  1  0  0  0
  8 35  1  0  0  0
  9 10  2  0  0  0
  9 36  1  0  0  0
 10 11  1  0  0  0
 11 12  1  0  0  0
 12 13  1  0  0  0
 12 37  1  0  0  0
 12 38  1  0  0  0
 13 14  1  0  0  0
 13 39  1  0  0  0
 13 40  1  0  0  0
 14 15  1  0  0  0
 14 19  1  0  0  0
 15 16  1  0  0  0
 15 17  2  0  0  0
 15 18  2  0  0  0
 16 41  1  0  0  0
 16 42  1  0  0  0
 16 43  1  0  0  0
 19 20  1  0  0  0
 19 44  1  0  0  0
 19 45  1  0  0  0
 20 21  1  0  0  0
 20 28  2  0  0  0
 21 22  2  0  0  0
 21 46  1  0  0  0
 22 23  1  0  0  0
 23 24  1  0  0  0
 23 28  1  0  0  0
 24 25  2  0  0  0
 24 47  1  0  0  0
 25 26  1  0  0  0
 25 48  1  0  0  0
 26 27  2  0  0  0
 27 28  1  0  0  0
M  END
> <i_epik_Tot_Q>
0

> <i_epik_Tot_abs_Q>
0

> <i_f3d_flags>
0

> <i_lp_mmshare_version>
64135

> <i_m_source_file_index>
1

> <b_lp_Chiralities_Consistent>
1

> <r_epik_Charging_Adjusted_Penalty>
0

> <r_epik_Ionization_Penalty>
2.63196e-06

> <r_epik_Ionization_Penalty_Charging>
0

> <r_epik_Ionization_Penalty_Neutral>
2.63196e-06

> <r_epik_State_Penalty>
-0

> <r_lp_Energy>
45.581

> <r_lp_tautomer_probability>
1

> <s_epik_cmdline>
J2VwaWtfcHl0aG9uJywgJy1waCcsICc3LjAnLCAnLXRuJywgJzgnLCAnLW1hJywgJzIwMCcsICctaW1hZScsICc8aW5maWxlLm1hZT4nLCAnLW9tYWUnLCAnPG91dGZpbGUubWFlPic=

> <s_epik_input>
W0NIM11OKFtDSDJdMSljKG4yKVtjSF1bY0hdbihuW2NIXTMpYzJjM1tDSDJdTihTKD1PKSg9TylbQ0gzXSlbQ0gyXVtDSDJdT2MoYzE0KVtjSF1bY0hdYyhGKVtjSF00

> <s_lp_Force_Field>
OPLS_2005

> <s_lp_Variant>
MCD00073-1

> <s_m_source_file>
MCD00073.smi

$$$$
MCD00074
                    3D
 Schrodinger Suite 2023-4.
 45 48  0  0  1  0            999 V2000
   -0.0074    0.1503    0.0251 C   0  0  0  0  0  0
    1.4043   -0.0020   -0.0006 O   0  0  0  0  0  0
    1.9268   -1.2794   -0.0148 C   0  0  0  0  0  0
    1.1362   -2.4497   -0.0194 C   0  0  0  0  0  0
    1.7063   -3.7361   -0.0219 C   0  0  0  0  0  0
    0.9739   -4.8718   -0.0125 N   0  0  0  0  0  0
    1.6130   -6.0362    0.0157 C   0  0  0  0  0  0
    2.9300   -6.2086    0.0511 N   0  0  0  0  0  0
    3.7282   -5.1165    0.0444 C   0  0  0  0  0  0
    3.1279   -3.8268   -0.0151 C   0  0  0  0  0  0
    3.9470   -2.6740   -0.0467 C   0  0  0  0  0  0
    3.3302   -1.3980   -0.0409 C   0  0  0  0  0  0
    4.0483   -0.2179   -0.0432 O   0  0  0  0  0  0
    5.3803   -0.2242   -0.5476 C   0  0  0  0  0  0
    6.4255   -0.6249    0.5093 C   0  0  0  0  0  0
    7.3771   -1.4578   -0.1349 O   0  0  0  0  0  0
    8.4586   -1.8952    0.6738 C   0  0  0  0  0  0
    8.0487   -2.9776    1.6842 C   0  0  0  0  0  0
    7.3639   -4.0161    0.9935 O   0  0  0  0  0  0
    6.9308   -5.1070    1.7198 C   0  0  0  0  0  0
    7.5839   -5.5619    2.8926 C   0  0  0  0  0  0
    7.1167   -6.6969    3.5801 C   0  0  0  0  0  0
    7.7560   -7.1161    4.6984 F   0  0  0  0  0  0
    5.9939   -7.3955    3.1017 C   0  0  0  0  0  0
    5.4194   -8.7952    3.9329 Cl  0  0  0  0  0  0
    5.3343   -6.9498    1.9421 C   0  0  0  0  0  0
    5.7884   -5.8017    1.2521 C   0  0  0  0  0  0
    5.1176   -5.3002    0.1251 N   0  0  0  0  0  0
   -0.2538    1.2118    0.0401 H   0  0  0  0  0  0
   -0.4412   -0.3009    0.9184 H   0  0  0  0  0  0
   -0.4713   -0.2828   -0.8620 H   0  0  0  0  0  0
    0.0589   -2.3891   -0.0123 H   0  0  0  0  0  0
    1.0041   -6.9281    0.0207 H   0  0  0  0  0  0
    5.0200   -2.7713   -0.0551 H   0  0  0  0  0  0
    5.4357   -0.8725   -1.4242 H   0  0  0  0  0  0
    5.6102    0.7751   -0.9175 H   0  0  0  0  0  0
    6.8998    0.2605    0.9346 H   0  0  0  0  0  0
    5.9541   -1.1642    1.3309 H   0  0  0  0  0  0
    9.2133   -2.3078    0.0040 H   0  0  0  0  0  0
    8.9249   -1.0481    1.1787 H   0  0  0  0  0  0
    8.9591   -3.3445    2.1565 H   0  0  0  0  0  0
    7.4111   -2.5654    2.4670 H   0  0  0  0  0  0
    8.4586   -5.0662    3.2824 H   0  0  0  0  0  0
    4.4773   -7.5054    1.5950 H   0  0  0  0  0  0
    5.6189   -4.5031   -0.2404 H   0  0  0  0  0  0
  1  2  1  0  0  0
  1 29  1  0  0  0
  1 30  1  0  0  0
  1 31  1  0  0  0
  2  3  1  0  0  0
  3  4  2  0  0  0
  3 12  1  0  0  0
  4  5  1  0  0  0
  4 32  1  0  0  0
  5  6  2  0  0  0
  5 10  1  0  0  0
  6  7  1  0  0  0
  7  8  2  0  0  0
  7 33  1  0  0  0
  8  9  1  0  0  0
  9 10  2  0  0  0
  9 28  1  0  0  0
 10 11  1  0  0  0
 11 12  2  0  0  0
 11 34  1  0  0  0
 12 13  1  0  0  0
 13 14  1  0  0  0
 14 15  1  0  0  0
 14 35  1  0  0  0
 14 36  1  0  0  0
 15 16  1  0  0  0
 15 37  1  0  0  0
 15 38  1  0  0  0
 16 17  1  0  0  0
 17 18  1  0  0  0
 17 39  1  0  0  0
 17 40  1  0  0  0
 18 19  1  0  0  0
 18 41  1  0  0  0
 18 42  1  0  0  0
 19 20  1  0  0  0
 20 21  2  0  0  0
 20 27  1  0  0  0
 21 22  1  0  0  0
 21 43  1  0  0  0
 22 23  1  0  0  0
 22 24  2  0  0  0
 24 25  1  0  0  0
 24 26  1  0  0  0
 26 27  2  0  0  0
 26 44  1  0  0  0
 27 28  1  0  0  0
 28 45  1  0  0  0
M  END
> <i_epik_Tot_Q>
0

> <i_epik_Tot_abs_Q>
0

> <i_f3d_flags>
0

> <i_lp_mmshare_version>
64135

> <i_m_source_file_index>
1

> <b_lp_Chiralities_Consistent>
1

> <r_epik_Charging_Adjusted_Penalty>
0

> <r_epik_Ionization_Penalty>
0.0010874

> <r_epik_Ionization_Penalty_Charging>
0

> <r_epik_Ionization_Penalty_Neutral>
0.0010874

> <r_epik_State_Penalty>
-0

> <r_lp_Energy>
38.3932

> <r_lp_tautomer_probability>
1

> <s_epik_cmdline>
J2VwaWtfcHl0aG9uJywgJy1waCcsICc3LjAnLCAnLXRuJywgJzgnLCAnLW1hJywgJzIwMCcsICctaW1hZScsICc8aW5maWxlLm1hZT4nLCAnLW9tYWUnLCAnPG91dGZpbGUubWFlPic=

> <s_epik_input>
W0NIM11PYyhbY0hdMSljKFtjSF0yKU9bQ0gyXVtDSDJdT1tDSDJdW0NIMl1PYyhbY0hdYyhGKWMoQ2wpW2NIXTMpYzNbTkhdYyhjMmMxNCluW2NIXW40

> <s_lp_Force_Field>
OPLS_2005

> <s_lp_Variant>
MCD00074-1

> <s_m_source_file>
MCD00074.smi

$$$$
MCD00075
                    3D
 Schrodinger Suite 2023-4.
 50 53  0  0  1  0            999 V2000
   -0.0157    0.1513   -0.0341 C   0  0  0  0  0  0
    1.3966    0.0034   -0.0481 O   0  0  0  0  0  0
    1.9230   -1.2721   -0.0282 C   0  0  0  0  0  0
    1.1354   -2.4464   -0.0310 C   0  0  0  0  0  0
    1.7077   -3.7326   -0.0047 C   0  0  0  0  0  0
    0.9834   -4.8735   -0.0015 N   0  0  0  0  0  0
    1.6314   -6.0334    0.0357 C   0  0  0  0  0  0
    2.9502   -6.1976    0.0683 N   0  0  0  0  0  0
    3.7436   -5.1016    0.0537 C   0  0  0  0  0  0
    3.1281   -3.8177    0.0241 C   0  0  0  0  0  0
    3.9400   -2.6607    0.0243 C   0  0  0  0  0  0
    3.3274   -1.3851   -0.0025 C   0  0  0  0  0  0
    4.0492   -0.2050   -0.0064 O   0  0  0  0  0  0
    5.4757   -0.2473    0.0439 C   0  0  0  0  0  0
    5.9779   -0.5054    1.4783 C   0  0  0  0  0  0
    7.5077   -0.6566    1.6025 C   0  0  0  0  0  0
    8.0172   -2.1122    1.6411 C   0  0  0  0  0  0
    8.1123   -2.8071    0.2714 C   0  0  0  0  0  0
    8.6092   -4.2582    0.3692 C   0  0  0  0  0  0
    7.6679   -5.0348    1.1042 O   0  0  0  0  0  0
    7.2983   -6.2245    0.5207 C   0  0  0  0  0  0
    8.1966   -7.3169    0.4558 C   0  0  0  0  0  0
    9.7854   -7.2081    1.1261 Cl  0  0  0  0  0  0
    7.7933   -8.5246   -0.1439 C   0  0  0  0  0  0
    6.4992   -8.6487   -0.6792 C   0  0  0  0  0  0
    5.5978   -7.5713   -0.6030 C   0  0  0  0  0  0
    5.9826   -6.3580    0.0146 C   0  0  0  0  0  0
    5.1436   -5.2350    0.1042 N   0  0  0  0  0  0
   -0.2658    1.2121   -0.0335 H   0  0  0  0  0  0
   -0.4543   -0.2907    0.8615 H   0  0  0  0  0  0
   -0.4723   -0.2943   -0.9188 H   0  0  0  0  0  0
    0.0582   -2.3891   -0.0522 H   0  0  0  0  0  0
    1.0286   -6.9293    0.0418 H   0  0  0  0  0  0
    5.0093   -2.7565    0.0531 H   0  0  0  0  0  0
    5.8832   -0.9501   -0.6815 H   0  0  0  0  0  0
    5.8373    0.7287   -0.2803 H   0  0  0  0  0  0
    5.6625    0.3411    2.0893 H   0  0  0  0  0  0
    5.4860   -1.3721    1.9194 H   0  0  0  0  0  0
    8.0222   -0.0835    0.8302 H   0  0  0  0  0  0
    7.7997   -0.1949    2.5465 H   0  0  0  0  0  0
    9.0130   -2.1119    2.0863 H   0  0  0  0  0  0
    7.3944   -2.6981    2.3179 H   0  0  0  0  0  0
    7.1494   -2.8015   -0.2316 H   0  0  0  0  0  0
    8.7905   -2.2413   -0.3680 H   0  0  0  0  0  0
    8.7598   -4.6537   -0.6375 H   0  0  0  0  0  0
    9.5762   -4.2933    0.8717 H   0  0  0  0  0  0
    8.4779   -9.3584   -0.1953 H   0  0  0  0  0  0
    6.1968   -9.5723   -1.1502 H   0  0  0  0  0  0
    4.6218   -7.6949   -1.0443 H   0  0  0  0  0  0
    5.6336   -4.3735    0.2961 H   0  0  0  0  0  0
  1  2  1  0  0  0
  1 29  1  0  0  0
  1 30  1  0  0  0
  1 31  1  0  0  0
  2  3  1  0  0  0
  3  4  2  0  0  0
  3 12  1  0  0  0
  4  5  1  0  0  0
  4 32  1  0  0  0
  5  6  2  0  0  0
  5 10  1  0  0  0
  6  7  1  0  0  0
  7  8  2  0  0  0
  7 33  1  0  0  0
  8  9  1  0  0  0
  9 10  2  0  0  0
  9 28  1  0  0  0
 10 11  1  0  0  0
 11 12  2  0  0  0
 11 34  1  0  0  0
 12 13  1  0  0  0
 13 14  1  0  0  0
 14 15  1  0  0  0
 14 35  1  0  0  0
 14 36  1  0  0  0
 15 16  1  0  0  0
 15 37  1  0  0  0
 15 38  1  0  0  0
 16 17  1  0  0  0
 16 39  1  0  0  0
 16 40  1  0  0  0
 17 18  1  0  0  0
 17 41  1  0  0  0
 17 42  1  0  0  0
 18 19  1  0  0  0
 18 43  1  0  0  0
 18 44  1  0  0  0
 19 20  1  0  0  0
 19 45  1  0  0  0
 19 46  1  0  0  0
 20 21  1  0  0  0
 21 22  2  0  0  0
 21 27  1  0  0  0
 22 23  1  0  0  0
 22 24  1  0  0  0
 24 25  2  0  0  0
 24 47  1  0  0  0
 25 26  1  0  0  0
 25 48  1  0  0  0
 26 27  2  0  0  0
 26 49  1  0  0  0
 27 28  1  0  0  0
 28 50  1  0  0  0
M  END
> <i_epik_Tot_Q>
0

> <i_epik_Tot_abs_Q>
0

> <i_f3d_flags>
0

> <i_lp_mmshare_version>
64135

> <i_m_source_file_index>
1

> <b_lp_Chiralities_Consistent>
1

> <r_epik_Charging_Adjusted_Penalty>
0

> <r_epik_Ionization_Penalty>
0.00137457

> <r_epik_Ionization_Penalty_Charging>
0

> <r_epik_Ionization_Penalty_Neutral>
0.00137457

> <r_epik_State_Penalty>
-0

> <r_lp_Energy>
39.2301

> <r_lp_tautomer_probability>
1

> <s_epik_cmdline>
J2VwaWtfcHl0aG9uJywgJy1waCcsICc3LjAnLCAnLXRuJywgJzgnLCAnLW1hJywgJzIwMCcsICctaW1hZScsICc8aW5maWxlLm1hZT4nLCAnLW9tYWUnLCAnPG91dGZpbGUubWFlPic=

> <s_epik_input>
W0NIM11PYyhbY0hdMSljKFtjSF0yKU9bQ0gyXVtDSDJdW0NIMl1bQ0gyXVtDSDJdW0NIMl1PYyhjKENsKVtjSF1bY0hdW2NIXTMpYzNbTkhdYyhjMmMxNCluW2NIXW40

> <s_lp_Force_Field>
OPLS_2005

> <s_lp_Variant>
MCD00075-1

> <s_m_source_file>
MCD00075.smi

$$$$
MCD00076
                    3D
 Schrodinger Suite 2023-4.
 50 53  0  0  1  0            999 V2000
    0.0517    0.2514    0.1824 C   0  0  0  0  0  0
    1.4579    0.0526    0.1892 O   0  0  0  0  0  0
    1.9390   -1.2390    0.1159 C   0  0  0  0  0  0
    1.1109   -2.3798    0.0352 C   0  0  0  0  0  0
    1.6383   -3.6815   -0.0449 C   0  0  0  0  0  0
    0.8685   -4.7877   -0.1432 N   0  0  0  0  0  0
    1.4683   -5.9706   -0.2205 C   0  0  0  0  0  0
    2.7783   -6.1900   -0.1967 N   0  0  0  0  0  0
    3.6120   -5.1308   -0.0781 C   0  0  0  0  0  0
    3.0559   -3.8210   -0.0206 C   0  0  0  0  0  0
    3.9137   -2.6968    0.0484 C   0  0  0  0  0  0
    3.3382   -1.4021    0.1040 C   0  0  0  0  0  0
    4.0892   -0.2436    0.1627 O   0  0  0  0  0  0
    5.4361   -0.2563   -0.3038 C   0  0  0  0  0  0
    5.4834   -0.2999   -1.8437 C   0  0  0  0  0  0
    6.9062   -0.4636   -2.4097 C   0  0  0  0  0  0
    7.4108   -1.9177   -2.3946 C   0  0  0  0  0  0
    6.8464   -2.7672   -3.5494 C   0  0  0  0  0  0
    7.1032   -4.2686   -3.3728 C   0  0  0  0  0  0
    6.3378   -4.6986   -2.2578 O   0  0  0  0  0  0
    6.3857   -6.0229   -1.8758 C   0  0  0  0  0  0
    7.0910   -7.0226   -2.5894 C   0  0  0  0  0  0
    7.0895   -8.3542   -2.1348 C   0  0  0  0  0  0
    6.3982   -8.6978   -0.9594 C   0  0  0  0  0  0
    5.6963   -7.7146   -0.2364 C   0  0  0  0  0  0
    4.9144   -8.1715    1.2377 Cl  0  0  0  0  0  0
    5.6743   -6.3780   -0.7058 C   0  0  0  0  0  0
    4.9953   -5.3615   -0.0202 N   0  0  0  0  0  0
   -0.1604    1.3186    0.2460 H   0  0  0  0  0  0
   -0.4238   -0.2307    1.0376 H   0  0  0  0  0  0
   -0.3991   -0.1191   -0.7394 H   0  0  0  0  0  0
    0.0362   -2.2835    0.0261 H   0  0  0  0  0  0
    0.8302   -6.8373   -0.3084 H   0  0  0  0  0  0
    4.9820   -2.8338    0.0548 H   0  0  0  0  0  0
    5.8992    0.6722    0.0313 H   0  0  0  0  0  0
    6.0290   -1.0428    0.1592 H   0  0  0  0  0  0
    4.8415   -1.0940   -2.2234 H   0  0  0  0  0  0
    5.0552    0.6287   -2.2224 H   0  0  0  0  0  0
    6.9381   -0.0881   -3.4330 H   0  0  0  0  0  0
    7.5903    0.1679   -1.8421 H   0  0  0  0  0  0
    8.4991   -1.9203   -2.4652 H   0  0  0  0  0  0
    7.1747   -2.3743   -1.4332 H   0  0  0  0  0  0
    5.7726   -2.6109   -3.6502 H   0  0  0  0  0  0
    7.2888   -2.4309   -4.4876 H   0  0  0  0  0  0
    6.7881   -4.7989   -4.2725 H   0  0  0  0  0  0
    8.1660   -4.4597   -3.2158 H   0  0  0  0  0  0
    7.6397   -6.7917   -3.4895 H   0  0  0  0  0  0
    7.6279   -9.1124   -2.6839 H   0  0  0  0  0  0
    6.4157   -9.7182   -0.6057 H   0  0  0  0  0  0
    5.5134   -4.4953   -0.0190 H   0  0  0  0  0  0
  1  2  1  0  0  0
  1 29  1  0  0  0
  1 30  1  0  0  0
  1 31  1  0  0  0
  2  3  1  0  0  0
  3  4  2  0  0  0
  3 12  1  0  0  0
  4  5  1  0  0  0
  4 32  1  0  0  0
  5  6  2  0  0  0
  5 10  1  0  0  0
  6  7  1  0  0  0
  7  8  2  0  0  0
  7 33  1  0  0  0
  8  9  1  0  0  0
  9 10  2  0  0  0
  9 28  1  0  0  0
 10 11  1  0  0  0
 11 12  2  0  0  0
 11 34  1  0  0  0
 12 13  1  0  0  0
 13 14  1  0  0  0
 14 15  1  0  0  0
 14 35  1  0  0  0
 14 36  1  0  0  0
 15 16  1  0  0  0
 15 37  1  0  0  0
 15 38  1  0  0  0
 16 17  1  0  0  0
 16 39  1  0  0  0
 16 40  1  0  0  0
 17 18  1  0  0  0
 17 41  1  0  0  0
 17 42  1  0  0  0
 18 19  1  0  0  0
 18 43  1  0  0  0
 18 44  1  0  0  0
 19 20  1  0  0  0
 19 45  1  0  0  0
 19 46  1  0  0  0
 20 21  1  0  0  0
 21 22  2  0  0  0
 21 27  1  0  0  0
 22 23  1  0  0  0
 22 47  1  0  0  0
 23 24  2  0  0  0
 23 48  1  0  0  0
 24 25  1  0  0  0
 24 49  1  0  0  0
 25 26  1  0  0  0
 25 27  2  0  0  0
 27 28  1  0  0  0
 28 50  1  0  0  0
M  END
> <i_epik_Tot_Q>
0

> <i_epik_Tot_abs_Q>
0

> <i_f3d_flags>
0

> <i_lp_mmshare_version>
64135

> <i_m_source_file_index>
1

> <b_lp_Chiralities_Consistent>
1

> <r_epik_Charging_Adjusted_Penalty>
0

> <r_epik_Ionization_Penalty>
0.00137457

> <r_epik_Ionization_Penalty_Charging>
0

> <r_epik_Ionization_Penalty_Neutral>
0.00137457

> <r_epik_State_Penalty>
-0

> <r_lp_Energy>
37.4564

> <r_lp_tautomer_probability>
1

> <s_epik_cmdline>
J2VwaWtfcHl0aG9uJywgJy1waCcsICc3LjAnLCAnLXRuJywgJzgnLCAnLW1hJywgJzIwMCcsICctaW1hZScsICc8aW5maWxlLm1hZT4nLCAnLW9tYWUnLCAnPG91dGZpbGUubWFlPic=

> <s_epik_input>
W0NIM11PYyhbY0hdMSljKFtjSF0yKU9bQ0gyXVtDSDJdW0NIMl1bQ0gyXVtDSDJdW0NIMl1PYyhbY0hdW2NIXVtjSF1jM0NsKWMzW05IXWMoYzJjMTQpbltjSF1uNA==

> <s_lp_Force_Field>
OPLS_2005

> <s_lp_Variant>
MCD00076-1

> <s_m_source_file>
MCD00076.smi

$$$$
MCD00077
                    3D
 Schrodinger Suite 2023-4.
 50 53  0  0  1  0            999 V2000
   -0.0165    0.1574    0.0053 C   0  0  0  0  0  0
    1.3950    0.0043   -0.0029 O   0  0  0  0  0  0
    1.9136   -1.2739   -0.0028 C   0  0  0  0  0  0
    1.1241   -2.4486    0.0206 C   0  0  0  0  0  0
    1.6970   -3.7374    0.0214 C   0  0  0  0  0  0
    0.9790   -4.8823    0.0564 N   0  0  0  0  0  0
    1.6335   -6.0406    0.0433 C   0  0  0  0  0  0
    2.9527   -6.2020   -0.0162 N   0  0  0  0  0  0
    3.7377   -5.1012   -0.0545 C   0  0  0  0  0  0
    3.1166   -3.8218   -0.0248 C   0  0  0  0  0  0
    3.9268   -2.6674   -0.0341 C   0  0  0  0  0  0
    3.3163   -1.3980   -0.0057 C   0  0  0  0  0  0
    4.0882   -0.2577   -0.0091 O   0  0  0  0  0  0
    5.0294   -0.1340    1.0584 C   0  0  0  0  0  0
    6.4872   -0.0022    0.5711 C   0  0  0  0  0  0
    7.0928   -1.3212    0.0682 C   0  0  0  0  0  0
    8.6125   -1.2917   -0.1357 C   0  0  0  0  0  0
    9.1734   -2.5818   -0.7687 C   0  0  0  0  0  0
    9.0189   -3.8583    0.0812 C   0  0  0  0  0  0
    7.6875   -4.3600   -0.0049 O   0  0  0  0  0  0
    7.3682   -5.5308    0.6611 C   0  0  0  0  0  0
    8.3069   -6.2690    1.4262 C   0  0  0  0  0  0
    7.9235   -7.4501    2.0867 C   0  0  0  0  0  0
    6.5991   -7.9098    1.9932 C   0  0  0  0  0  0
    6.1294   -9.3594    2.8023 Cl  0  0  0  0  0  0
    5.6565   -7.1875    1.2395 C   0  0  0  0  0  0
    6.0312   -5.9982    0.5709 C   0  0  0  0  0  0
    5.1312   -5.2343   -0.1902 N   0  0  0  0  0  0
   -0.2622    1.2192   -0.0029 H   0  0  0  0  0  0
   -0.4588   -0.2762    0.9032 H   0  0  0  0  0  0
   -0.4725   -0.2936   -0.8771 H   0  0  0  0  0  0
    0.0468   -2.3892    0.0426 H   0  0  0  0  0  0
    1.0346   -6.9387    0.0735 H   0  0  0  0  0  0
    4.9941   -2.7524   -0.0606 H   0  0  0  0  0  0
    4.7634    0.7765    1.5958 H   0  0  0  0  0  0
    4.9440   -0.9376    1.7926 H   0  0  0  0  0  0
    6.5569    0.7655   -0.2002 H   0  0  0  0  0  0
    7.0891    0.3533    1.4081 H   0  0  0  0  0  0
    6.8684   -2.0996    0.7965 H   0  0  0  0  0  0
    6.6172   -1.5961   -0.8735 H   0  0  0  0  0  0
    8.8665   -0.4492   -0.7803 H   0  0  0  0  0  0
    9.1071   -1.1047    0.8181 H   0  0  0  0  0  0
    8.7313   -2.7401   -1.7530 H   0  0  0  0  0  0
   10.2377   -2.4231   -0.9458 H   0  0  0  0  0  0
    9.7076   -4.6127   -0.3017 H   0  0  0  0  0  0
    9.2906   -3.6530    1.1179 H   0  0  0  0  0  0
    9.3329   -5.9501    1.5249 H   0  0  0  0  0  0
    8.6487   -8.0032    2.6655 H   0  0  0  0  0  0
    4.6512   -7.5722    1.1868 H   0  0  0  0  0  0
    5.5698   -4.3902   -0.5291 H   0  0  0  0  0  0
  1  2  1  0  0  0
  1 29  1  0  0  0
  1 30  1  0  0  0
  1 31  1  0  0  0
  2  3  1  0  0  0
  3  4  2  0  0  0
  3 12  1  0  0  0
  4  5  1  0  0  0
  4 32  1  0  0  0
  5  6  2  0  0  0
  5 10  1  0  0  0
  6  7  1  0  0  0
  7  8  2  0  0  0
  7 33  1  0  0  0
  8  9  1  0  0  0
  9 10  2  0  0  0
  9 28  1  0  0  0
 10 11  1  0  0  0
 11 12  2  0  0  0
 11 34  1  0  0  0
 12 13  1  0  0  0
 13 14  1  0  0  0
 14 15  1  0  0  0
 14 35  1  0  0  0
 14 36  1  0  0  0
 15 16  1  0  0  0
 15 37  1  0  0  0
 15 38  1  0  0  0
 16 17  1  0  0  0
 16 39  1  0  0  0
 16 40  1  0  0  0
 17 18  1  0  0  0
 17 41  1  0  0  0
 17 42  1  0  0  0
 18 19  1  0  0  0
 18 43  1  0  0  0
 18 44  1  0  0  0
 19 20  1  0  0  0
 19 45  1  0  0  0
 19 46  1  0  0  0
 20 21  1  0  0  0
 21 22  2  0  0  0
 21 27  1  0  0  0
 22 23  1  0  0  0
 22 47  1  0  0  0
 23 24  2  0  0  0
 23 48  1  0  0  0
 24 25  1  0  0  0
 24 26  1  0  0  0
 26 27  2  0  0  0
 26 49  1  0  0  0
 27 28  1  0  0  0
 28 50  1  0  0  0
M  END
> <i_epik_Tot_Q>
0

> <i_epik_Tot_abs_Q>
0

> <i_f3d_flags>
0

> <i_lp_mmshare_version>
64135

> <i_m_source_file_index>
1

> <b_lp_Chiralities_Consistent>
1

> <r_epik_Charging_Adjusted_Penalty>
0

> <r_epik_Ionization_Penalty>
0.00137457

> <r_epik_Ionization_Penalty_Charging>
0

> <r_epik_Ionization_Penalty_Neutral>
0.00137457

> <r_epik_State_Penalty>
-0

> <r_lp_Energy>
40.1655

> <r_lp_tautomer_probability>
1

> <s_epik_cmdline>
J2VwaWtfcHl0aG9uJywgJy1waCcsICc3LjAnLCAnLXRuJywgJzgnLCAnLW1hJywgJzIwMCcsICctaW1hZScsICc8aW5maWxlLm1hZT4nLCAnLW9tYWUnLCAnPG91dGZpbGUubWFlPic=

> <s_epik_input>
W0NIM11PYyhbY0hdMSljKFtjSF0yKU9bQ0gyXVtDSDJdW0NIMl1bQ0gyXVtDSDJdW0NIMl1PYyhbY0hdW2NIXWMoQ2wpW2NIXTMpYzNbTkhdYyhjMmMxNCluW2NIXW40

> <s_lp_Force_Field>
OPLS_2005

> <s_lp_Variant>
MCD00077-1

> <s_m_source_file>
MCD00077.smi

$$$$
MCD00078
                    3D
 Schrodinger Suite 2023-4.
 50 53  0  0  1  0            999 V2000
    0.0756    0.1491    0.1872 C   0  0  0  0  0  0
    1.4811   -0.0138    0.0691 O   0  0  0  0  0  0
    1.9906   -1.2953    0.0342 C   0  0  0  0  0  0
    1.1960   -2.4630    0.0842 C   0  0  0  0  0  0
    1.7620   -3.7534    0.0618 C   0  0  0  0  0  0
    1.0313   -4.8879    0.1418 N   0  0  0  0  0  0
    1.6692   -6.0541    0.1378 C   0  0  0  0  0  0
    2.9841   -6.2319    0.0604 N   0  0  0  0  0  0
    3.7785   -5.1414   -0.0337 C   0  0  0  0  0  0
    3.1803   -3.8513   -0.0380 C   0  0  0  0  0  0
    4.0014   -2.7028   -0.1194 C   0  0  0  0  0  0
    3.3893   -1.4380   -0.0558 C   0  0  0  0  0  0
    4.2042   -0.3366   -0.0705 O   0  0  0  0  0  0
    4.3684    0.2652    1.2071 C   0  0  0  0  0  0
    5.8099    0.7728    1.3620 C   0  0  0  0  0  0
    6.8920   -0.3189    1.2539 C   0  0  0  0  0  0
    6.7868   -1.4234    2.3227 C   0  0  0  0  0  0
    8.0362   -2.3187    2.4301 C   0  0  0  0  0  0
    8.3922   -3.0900    1.1438 C   0  0  0  0  0  0
    7.3274   -3.9264    0.7057 O   0  0  0  0  0  0
    7.1014   -5.1473    1.3142 C   0  0  0  0  0  0
    7.9238   -5.6921    2.3326 C   0  0  0  0  0  0
    7.6227   -6.9436    2.9027 C   0  0  0  0  0  0
    8.6322   -7.5907    4.1431 Cl  0  0  0  0  0  0
    6.5015   -7.6678    2.4612 C   0  0  0  0  0  0
    5.6776   -7.1381    1.4523 C   0  0  0  0  0  0
    5.9698   -5.8796    0.8808 C   0  0  0  0  0  0
    5.1666   -5.3172   -0.1207 N   0  0  0  0  0  0
   -0.1617    1.2126    0.2130 H   0  0  0  0  0  0
   -0.3008   -0.2948    1.1098 H   0  0  0  0  0  0
   -0.4495   -0.2847   -0.6649 H   0  0  0  0  0  0
    0.1214   -2.3972    0.1568 H   0  0  0  0  0  0
    1.0607   -6.9435    0.2073 H   0  0  0  0  0  0
    5.0769   -2.7642   -0.1896 H   0  0  0  0  0  0
    3.6726    1.1004    1.2915 H   0  0  0  0  0  0
    4.1285   -0.4225    2.0207 H   0  0  0  0  0  0
    5.9991    1.5328    0.6031 H   0  0  0  0  0  0
    5.9059    1.2792    2.3229 H   0  0  0  0  0  0
    6.8584   -0.7646    0.2593 H   0  0  0  0  0  0
    7.8672    0.1622    1.3360 H   0  0  0  0  0  0
    6.6180   -0.9601    3.2954 H   0  0  0  0  0  0
    5.9109   -2.0434    2.1304 H   0  0  0  0  0  0
    8.8896   -1.7032    2.7161 H   0  0  0  0  0  0
    7.8918   -3.0200    3.2514 H   0  0  0  0  0  0
    8.5949   -2.3806    0.3419 H   0  0  0  0  0  0
    9.3204   -3.6497    1.2574 H   0  0  0  0  0  0
    8.7927   -5.1684    2.6987 H   0  0  0  0  0  0
    6.2720   -8.6307    2.8934 H   0  0  0  0  0  0
    4.8277   -7.7149    1.1208 H   0  0  0  0  0  0
    5.6145   -4.4884   -0.4845 H   0  0  0  0  0  0
  1  2  1  0  0  0
  1 29  1  0  0  0
  1 30  1  0  0  0
  1 31  1  0  0  0
  2  3  1  0  0  0
  3  4  2  0  0  0
  3 12  1  0  0  0
  4  5  1  0  0  0
  4 32  1  0  0  0
  5  6  2  0  0  0
  5 10  1  0  0  0
  6  7  1  0  0  0
  7  8  2  0  0  0
  7 33  1  0  0  0
  8  9  1  0  0  0
  9 10  2  0  0  0
  9 28  1  0  0  0
 10 11  1  0  0  0
 11 12  2  0  0  0
 11 34  1  0  0  0
 12 13  1  0  0  0
 13 14  1  0  0  0
 14 15  1  0  0  0
 14 35  1  0  0  0
 14 36  1  0  0  0
 15 16  1  0  0  0
 15 37  1  0  0  0
 15 38  1  0  0  0
 16 17  1  0  0  0
 16 39  1  0  0  0
 16 40  1  0  0  0
 17 18  1  0  0  0
 17 41  1  0  0  0
 17 42  1  0  0  0
 18 19  1  0  0  0
 18 43  1  0  0  0
 18 44  1  0  0  0
 19 20  1  0  0  0
 19 45  1  0  0  0
 19 46  1  0  0  0
 20 21  1  0  0  0
 21 22  2  0  0  0
 21 27  1  0  0  0
 22 23  1  0  0  0
 22 47  1  0  0  0
 23 24  1  0  0  0
 23 25  2  0  0  0
 25 26  1  0  0  0
 25 48  1  0  0  0
 26 27  2  0  0  0
 26 49  1  0  0  0
 27 28  1  0  0  0
 28 50  1  0  0  0
M  END
> <i_epik_Tot_Q>
0

> <i_epik_Tot_abs_Q>
0

> <i_f3d_flags>
0

> <i_lp_mmshare_version>
64135

> <i_m_source_file_index>
1

> <b_lp_Chiralities_Consistent>
1

> <r_epik_Charging_Adjusted_Penalty>
0

> <r_epik_Ionization_Penalty>
0.00137457

> <r_epik_Ionization_Penalty_Charging>
0

> <r_epik_Ionization_Penalty_Neutral>
0.00137457

> <r_epik_State_Penalty>
-0

> <r_lp_Energy>
38.0149

> <r_lp_tautomer_probability>
1

> <s_epik_cmdline>
J2VwaWtfcHl0aG9uJywgJy1waCcsICc3LjAnLCAnLXRuJywgJzgnLCAnLW1hJywgJzIwMCcsICctaW1hZScsICc8aW5maWxlLm1hZT4nLCAnLW9tYWUnLCAnPG91dGZpbGUubWFlPic=

> <s_epik_input>
W0NIM11PYyhbY0hdMSljKFtjSF0yKU9bQ0gyXVtDSDJdW0NIMl1bQ0gyXVtDSDJdW0NIMl1PYyhbY0hdYyhDbClbY0hdW2NIXTMpYzNbTkhdYyhjMmMxNCluW2NIXW40

> <s_lp_Force_Field>
OPLS_2005

> <s_lp_Variant>
MCD00078-1

> <s_m_source_file>
MCD00078.smi

$$$$
MCD00079
                    3D
 Schrodinger Suite 2023-4.
 47 50  0  0  1  0            999 V2000
   -1.3832    3.1759    0.4587 O   0  0  0  0  0  0
   -1.0604    2.0247    0.7440 C   0  0  0  0  0  0
   -0.3484    1.2619   -0.1087 N   0  0  0  0  0  0
    0.0179   -0.1557   -0.0052 C   0  0  2  0  0  0
    1.5432   -0.2983    0.0864 C   0  0  0  0  0  0
    1.9885   -1.0627    0.9703 O   0  0  0  0  0  0
    2.2386    0.3430   -0.7330 O   0  5  0  0  0  0
   -0.4910   -0.9103   -1.2537 C   0  0  0  0  0  0
   -1.9875   -0.9478   -1.3343 C   0  0  0  0  0  0
   -2.8248   -1.5581   -0.4405 C   0  0  0  0  0  0
   -4.1488   -1.3195   -0.7808 N   0  0  0  0  0  0
   -4.1885   -0.5870   -1.9597 C   0  0  0  0  0  0
   -5.2589   -0.0951   -2.7336 C   0  0  0  0  0  0
   -4.9930    0.6513   -3.8955 C   0  0  0  0  0  0
   -3.6623    0.9079   -4.2744 C   0  0  0  0  0  0
   -2.5961    0.4197   -3.4936 C   0  0  0  0  0  0
   -2.8309   -0.3400   -2.3229 C   0  0  0  0  0  0
   -5.2827   -1.7378    0.0216 C   0  0  0  0  0  0
   -5.2219   -1.0607    1.3712 C   0  0  0  0  0  0
   -5.8641    0.0791    1.6720 C   0  0  0  0  0  0
   -5.6771    0.8789    2.9496 C   0  0  0  0  0  0
   -4.6477    0.3750    3.7994 O   0  0  0  0  0  0
   -3.3255    0.6539    3.5082 C   0  0  0  0  0  0
   -2.3803    0.3453    4.5051 C   0  0  0  0  0  0
   -1.0140    0.6141    4.3092 C   0  0  0  0  0  0
   -0.5633    1.1765    3.1004 C   0  0  0  0  0  0
    1.1157    1.5689    2.9571 Cl  0  0  0  0  0  0
   -1.4908    1.4426    2.0617 C   0  0  0  0  0  0
   -2.8662    1.2063    2.2850 C   0  0  0  0  0  0
   -0.0538    1.7105   -0.9637 H   0  0  0  0  0  0
   -0.4190   -0.6145    0.8824 H   0  0  0  0  0  0
   -0.0781   -0.4584   -2.1568 H   0  0  0  0  0  0
   -0.1128   -1.9336   -1.2389 H   0  0  0  0  0  0
   -2.5779   -2.1125    0.4532 H   0  0  0  0  0  0
   -6.2803   -0.2849   -2.4405 H   0  0  0  0  0  0
   -5.8086    1.0304   -4.4934 H   0  0  0  0  0  0
   -3.4572    1.4844   -5.1642 H   0  0  0  0  0  0
   -1.5804    0.6314   -3.7928 H   0  0  0  0  0  0
   -6.2124   -1.4842   -0.4874 H   0  0  0  0  0  0
   -5.2589   -2.8208    0.1447 H   0  0  0  0  0  0
   -4.5248   -1.4881    2.0768 H   0  0  0  0  0  0
   -6.5282    0.5164    0.9408 H   0  0  0  0  0  0
   -5.4951    1.9265    2.7061 H   0  0  0  0  0  0
   -6.6166    0.8541    3.5017 H   0  0  0  0  0  0
   -2.7092   -0.0828    5.4405 H   0  0  0  0  0  0
   -0.3087    0.3999    5.0987 H   0  0  0  0  0  0
   -3.5581    1.4419    1.4907 H   0  0  0  0  0  0
  1  2  2  0  0  0
  2  3  1  0  0  0
  2 28  1  0  0  0
  3  4  1  0  0  0
  3 30  1  0  0  0
  4  5  1  0  0  0
  4  8  1  0  0  0
  4 31  1  0  0  0
  5  6  2  0  0  0
  5  7  1  0  0  0
  8  9  1  0  0  0
  8 32  1  0  0  0
  8 33  1  0  0  0
  9 10  2  0  0  0
  9 17  1  0  0  0
 10 11  1  0  0  0
 10 34  1  0  0  0
 11 12  1  0  0  0
 11 18  1  0  0  0
 12 13  2  0  0  0
 12 17  1  0  0  0
 13 14  1  0  0  0
 13 35  1  0  0  0
 14 15  2  0  0  0
 14 36  1  0  0  0
 15 16  1  0  0  0
 15 37  1  0  0  0
 16 17  2  0  0  0
 16 38  1  0  0  0
 18 19  1  0  0  0
 18 39  1  0  0  0
 18 40  1  0  0  0
 19 20  2  0  0  0
 19 41  1  0  0  0
 20 21  1  0  0  0
 20 42  1  0  0  0
 21 22  1  0  0  0
 21 43  1  0  0  0
 21 44  1  0  0  0
 22 23  1  0  0  0
 23 24  1  0  0  0
 23 29  2  0  0  0
 24 25  2  0  0  0
 24 45  1  0  0  0
 25 26  1  0  0  0
 25 46  1  0  0  0
 26 27  1  0  0  0
 26 28  2  0  0  0
 28 29  1  0  0  0
 29 47  1  0  0  0
M  CHG  1   7  -1
M  END
> <i_epik_Tot_Q>
-1

> <i_epik_Tot_abs_Q>
1

> <i_f3d_flags>
0

> <i_lp_mmshare_version>
64135

> <i_m_source_file_index>
1

> <b_lp_Chiralities_Consistent>
1

> <r_epik_Charging_Adjusted_Penalty>
0.000142599

> <r_epik_Ionization_Penalty>
0.00014333

> <r_epik_Ionization_Penalty_Charging>
0.000142599

> <r_epik_Ionization_Penalty_Neutral>
7.31168e-07

> <r_epik_State_Penalty>
-0

> <r_lp_Energy>
25.2373

> <r_lp_tautomer_probability>
1

> <s_epik_cmdline>
J2VwaWtfcHl0aG9uJywgJy1waCcsICc3LjAnLCAnLXRuJywgJzgnLCAnLW1hJywgJzIwMCcsICctaW1hZScsICc8aW5maWxlLm1hZT4nLCAnLW9tYWUnLCAnPG91dGZpbGUubWFlPic=

> <s_epik_input>
Tz1DKFtPSF0pW0NASF0oW0NIMl0xKVtOSF1DKD1PKWMoW2NIXTIpYyhDbClbY0hdW2NIXWMyT1tDSDJdXFtDSF09W0NIXVxbQ0gyXW4oW2NIXTMpYyhjNGMxMylbY0hdW2NIXVtjSF1bY0hdNA==

> <s_lp_Force_Field>
OPLS_2005

> <s_lp_Variant>
MCD00079-1

> <s_m_source_file>
MCD00079.smi

$$$$
MCD00080
                    3D
 Schrodinger Suite 2023-4.
 51 54  0  0  1  0            999 V2000
   -0.6739    1.3756    0.8822 C   0  0  0  0  0  0
   -0.0782    0.0665    0.3562 C   0  0  0  0  0  0
    1.7344    0.2362    0.0614 S   0  0  0  0  0  0
    1.9455    1.0280   -1.1601 O   0  0  0  0  0  0
    2.3529    0.6744    1.3224 O   0  0  0  0  0  0
    2.2490   -1.3979   -0.2482 N   0  0  1  0  0  0
    1.6395   -2.1285   -1.3748 C   0  0  0  0  0  0
    2.1048   -1.5918   -2.7412 C   0  0  0  0  0  0
    2.3036   -2.6980   -3.6082 O   0  0  0  0  0  0
    3.2363   -2.5390   -4.6073 C   0  0  0  0  0  0
    3.4362   -1.3000   -5.2640 C   0  0  0  0  0  0
    4.4011   -1.1778   -6.2814 C   0  0  0  0  0  0
    5.1711   -2.2927   -6.6569 C   0  0  0  0  0  0
    6.0988   -2.1773   -7.6364 F   0  0  0  0  0  0
    4.9739   -3.5291   -6.0152 C   0  0  0  0  0  0
    4.0109   -3.6588   -4.9916 C   0  0  0  0  0  0
    3.8242   -5.0072   -4.3109 C   0  0  0  0  0  0
    4.9638   -5.4433   -3.5043 N   0  0  0  0  0  0
    5.8316   -6.4767   -4.0573 C   0  0  0  0  0  0
    4.8563   -5.3399   -2.1204 C   0  0  0  0  0  0
    5.1519   -6.4595   -1.2777 C   0  0  0  0  0  0
    5.0187   -6.3318    0.0894 C   0  0  0  0  0  0
    4.6143   -5.1256    0.5719 N   0  0  0  0  0  0
    4.4244   -4.8302    1.9268 N   0  0  0  0  0  0
    4.0394   -3.5615    1.9423 C   0  0  0  0  0  0
    3.9967   -3.0827    0.6243 C   0  0  0  0  0  0
    4.3561   -4.0724   -0.2867 C   0  0  0  0  0  0
    4.4661   -4.1586   -1.6304 N   0  0  0  0  0  0
    3.6621   -1.7498    0.0082 C   0  0  0  0  0  0
   -1.7469    1.2755    1.0463 H   0  0  0  0  0  0
   -0.5192    2.1886    0.1723 H   0  0  0  0  0  0
   -0.2174    1.6644    1.8292 H   0  0  0  0  0  0
   -0.2318   -0.7378    1.0757 H   0  0  0  0  0  0
   -0.5587   -0.2208   -0.5784 H   0  0  0  0  0  0
    1.8862   -3.1853   -1.2799 H   0  0  0  0  0  0
    0.5538   -2.0861   -1.3062 H   0  0  0  0  0  0
    1.3568   -0.9171   -3.1593 H   0  0  0  0  0  0
    3.0278   -1.0201   -2.6394 H   0  0  0  0  0  0
    2.8488   -0.4332   -5.0000 H   0  0  0  0  0  0
    4.5481   -0.2290   -6.7757 H   0  0  0  0  0  0
    5.5676   -4.3803   -6.3130 H   0  0  0  0  0  0
    2.9170   -5.0137   -3.7059 H   0  0  0  0  0  0
    3.6469   -5.7473   -5.0922 H   0  0  0  0  0  0
    6.7823   -6.5170   -3.5241 H   0  0  0  0  0  0
    6.0507   -6.2735   -5.1053 H   0  0  0  0  0  0
    5.3526   -7.4546   -3.9986 H   0  0  0  0  0  0
    5.4623   -7.4166   -1.6827 H   0  0  0  0  0  0
    5.2118   -7.1291    0.7997 H   0  0  0  0  0  0
    3.8209   -3.0492    2.8677 H   0  0  0  0  0  0
    4.0718   -0.9959    0.6784 H   0  0  0  0  0  0
    4.2389   -1.5914   -0.9025 H   0  0  0  0  0  0
  1  2  1  0  0  0
  1 30  1  0  0  0
  1 31  1  0  0  0
  1 32  1  0  0  0
  2  3  1  0  0  0
  2 33  1  0  0  0
  2 34  1  0  0  0
  3  4  2  0  0  0
  3  5  2  0  0  0
  3  6  1  0  0  0
  6  7  1  0  0  0
  6 29  1  0  0  0
  7  8  1  0  0  0
  7 35  1  0  0  0
  7 36  1  0  0  0
  8  9  1  0  0  0
  8 37  1  0  0  0
  8 38  1  0  0  0
  9 10  1  0  0  0
 10 11  2  0  0  0
 10 16  1  0  0  0
 11 12  1  0  0  0
 11 39  1  0  0  0
 12 13  2  0  0  0
 12 40  1  0  0  0
 13 14  1  0  0  0
 13 15  1  0  0  0
 15 16  2  0  0  0
 15 41  1  0  0  0
 16 17  1  0  0  0
 17 18  1  0  0  0
 17 42  1  0  0  0
 17 43  1  0  0  0
 18 19  1  0  0  0
 18 20  1  0  0  0
 19 44  1  0  0  0
 19 45  1  0  0  0
 19 46  1  0  0  0
 20 21  1  0  0  0
 20 28  2  0  0  0
 21 22  2  0  0  0
 21 47  1  0  0  0
 22 23  1  0  0  0
 22 48  1  0  0  0
 23 24  1  0  0  0
 23 27  1  0  0  0
 24 25  2  0  0  0
 25 26  1  0  0  0
 25 49  1  0  0  0
 26 27  2  0  0  0
 26 29  1  0  0  0
 27 28  1  0  0  0
 29 50  1  0  0  0
 29 51  1  0  0  0
M  END
> <i_epik_Tot_Q>
0

> <i_epik_Tot_abs_Q>
0

> <i_f3d_flags>
0

> <i_lp_mmshare_version>
64135

> <i_m_source_file_index>
1

> <b_lp_Chiralities_Consistent>
1

> <r_epik_Charging_Adjusted_Penalty>
0

> <r_epik_Ionization_Penalty>
2.63859e-06

> <r_epik_Ionization_Penalty_Charging>
0

> <r_epik_Ionization_Penalty_Neutral>
2.63859e-06

> <r_epik_State_Penalty>
-0

> <r_lp_Energy>
44.4485

> <r_lp_tautomer_probability>
1

> <s_epik_cmdline>
J2VwaWtfcHl0aG9uJywgJy1waCcsICc3LjAnLCAnLXRuJywgJzgnLCAnLW1hJywgJzIwMCcsICctaW1hZScsICc8aW5maWxlLm1hZT4nLCAnLW9tYWUnLCAnPG91dGZpbGUubWFlPic=

> <s_epik_input>
W0NIM11bQ0gyXVMoPU8pKD1PKU4oW0NIMl1bQ0gyXU8xKVtDSDJdYyhbY0hdbjIpYyhuMyluMltjSF1bY0hdYzNOKFtDSDNdKVtDSDJdYyhjMTQpW2NIXWMoRilbY0hdW2NIXTQ=

> <s_lp_Force_Field>
OPLS_2005

> <s_lp_Variant>
MCD00080-1

> <s_m_source_file>
MCD00080.smi

$$$$
MCD00081
                    3D
 Schrodinger Suite 2023-4.
 51 54  0  0  1  0            999 V2000
   -1.8421    0.4565   -1.3384 C   0  0  0  0  0  0
   -1.6090    1.3205   -0.0927 C   0  0  1  0  0  0
   -0.1027    1.4191    0.2850 C   0  0  0  0  0  0
    0.5336    0.1258    0.6194 N   0  0  3  0  0  0
    1.9296   -0.4393   -0.2497 S   0  0  0  0  0  0
    1.1958   -1.4733   -1.5806 C   0  0  0  0  0  0
    2.5898    0.7170   -0.8754 O   0  0  0  0  0  0
    2.6916   -1.3211    0.6481 O   0  0  0  0  0  0
   -0.0371   -0.6849    1.7115 C   0  0  0  0  0  0
    0.2212   -0.2865    3.1422 C   0  0  0  0  0  0
    1.2294   -0.5522    4.0820 C   0  0  0  0  0  0
    0.9383    0.0759    5.2154 N   0  0  0  0  0  0
   -0.2666    0.7408    4.9540 N   0  0  0  0  0  0
   -0.9476    1.5235    5.8379 C   0  0  0  0  0  0
   -2.1184    2.1154    5.4012 C   0  0  0  0  0  0
   -2.5573    1.8886    4.0570 C   0  0  0  0  0  0
   -1.8853    1.1021    3.2174 N   0  0  0  0  0  0
   -0.7505    0.5470    3.6765 C   0  0  0  0  0  0
   -3.7095    2.4862    3.5518 N   0  0  0  0  0  0
   -4.7047    3.0094    4.4799 C   0  0  0  0  0  0
   -3.7620    2.8892    2.1403 C   0  0  0  0  0  0
   -2.6427    3.8238    1.6846 C   0  0  0  0  0  0
   -2.3211    4.9397    2.4912 C   0  0  0  0  0  0
   -1.3245    5.8515    2.0987 C   0  0  0  0  0  0
   -1.0262    6.9109    2.8873 F   0  0  0  0  0  0
   -0.6459    5.6665    0.8822 C   0  0  0  0  0  0
   -0.9643    4.5669    0.0658 C   0  0  0  0  0  0
   -1.9449    3.6321    0.4616 C   0  0  0  0  0  0
   -2.1998    2.5885   -0.3969 O   0  0  0  0  0  0
   -1.5389   -0.5757   -1.1661 H   0  0  0  0  0  0
   -1.2844    0.8378   -2.1942 H   0  0  0  0  0  0
   -2.8979    0.4412   -1.6095 H   0  0  0  0  0  0
   -2.1821    0.8759    0.7121 H   0  0  0  0  0  0
    0.4334    1.8928   -0.5362 H   0  0  0  0  0  0
    0.0351    2.0708    1.1476 H   0  0  0  0  0  0
    1.9949   -1.9536   -2.1446 H   0  0  0  0  0  0
    0.6131   -0.8457   -2.2535 H   0  0  0  0  0  0
    0.5544   -2.2364   -1.1401 H   0  0  0  0  0  0
   -1.1025   -0.8233    1.5347 H   0  0  0  0  0  0
    0.3402   -1.6997    1.5878 H   0  0  0  0  0  0
    2.1208   -1.1541    3.9824 H   0  0  0  0  0  0
   -0.5342    1.6491    6.8333 H   0  0  0  0  0  0
   -2.6676    2.7567    6.0820 H   0  0  0  0  0  0
   -4.8996    2.2973    5.2826 H   0  0  0  0  0  0
   -5.6504    3.1960    3.9708 H   0  0  0  0  0  0
   -4.3662    3.9478    4.9196 H   0  0  0  0  0  0
   -3.8108    1.9986    1.5176 H   0  0  0  0  0  0
   -4.7021    3.4104    1.9588 H   0  0  0  0  0  0
   -2.8450    5.1069    3.4204 H   0  0  0  0  0  0
    0.1149    6.3679    0.5731 H   0  0  0  0  0  0
   -0.4423    4.4304   -0.8701 H   0  0  0  0  0  0
  1  2  1  0  0  0
  1 30  1  0  0  0
  1 31  1  0  0  0
  1 32  1  0  0  0
  2  3  1  0  0  0
  2 29  1  0  0  0
  2 33  1  0  0  0
  3  4  1  0  0  0
  3 34  1  0  0  0
  3 35  1  0  0  0
  4  5  1  0  0  0
  4  9  1  0  0  0
  5  6  1  0  0  0
  5  7  2  0  0  0
  5  8  2  0  0  0
  6 36  1  0  0  0
  6 37  1  0  0  0
  6 38  1  0  0  0
  9 10  1  0  0  0
  9 39  1  0  0  0
  9 40  1  0  0  0
 10 11  1  0  0  0
 10 18  2  0  0  0
 11 12  2  0  0  0
 11 41  1  0  0  0
 12 13  1  0  0  0
 13 14  1  0  0  0
 13 18  1  0  0  0
 14 15  2  0  0  0
 14 42  1  0  0  0
 15 16  1  0  0  0
 15 43  1  0  0  0
 16 17  2  0  0  0
 16 19  1  0  0  0
 17 18  1  0  0  0
 19 20  1  0  0  0
 19 21  1  0  0  0
 20 44  1  0  0  0
 20 45  1  0  0  0
 20 46  1  0  0  0
 21 22  1  0  0  0
 21 47  1  0  0  0
 21 48  1  0  0  0
 22 23  2  0  0  0
 22 28  1  0  0  0
 23 24  1  0  0  0
 23 49  1  0  0  0
 24 25  1  0  0  0
 24 26  2  0  0  0
 26 27  1  0  0  0
 26 50  1  0  0  0
 27 28  2  0  0  0
 27 51  1  0  0  0
 28 29  1  0  0  0
M  END
> <i_epik_Tot_Q>
0

> <i_epik_Tot_abs_Q>
0

> <i_f3d_flags>
0

> <i_lp_mmshare_version>
64135

> <i_m_source_file_index>
1

> <b_lp_Chiralities_Consistent>
1

> <r_epik_Charging_Adjusted_Penalty>
0

> <r_epik_Ionization_Penalty>
2.66389e-06

> <r_epik_Ionization_Penalty_Charging>
0

> <r_epik_Ionization_Penalty_Neutral>
2.66389e-06

> <r_epik_State_Penalty>
-0

> <r_lp_Energy>
44.1511

> <r_lp_tautomer_probability>
1

> <s_epik_cmdline>
J2VwaWtfcHl0aG9uJywgJy1waCcsICc3LjAnLCAnLXRuJywgJzgnLCAnLW1hJywgJzIwMCcsICctaW1hZScsICc8aW5maWxlLm1hZT4nLCAnLW9tYWUnLCAnPG91dGZpbGUubWFlPic=

> <s_epik_input>
W0NIM11TKD1PKSg9TylOKFtDSDJdMSlbQ0gyXVtDQEhdKFtDSDNdKU9jKFtjSF1bY0hdYyhGKVtjSF0yKWMyW0NIMl1OKFtDSDNdKWMobjMpW2NIXVtjSF1uKGMzYzE0KW5bY0hdNA==

> <s_lp_Force_Field>
OPLS_2005

> <s_lp_Variant>
MCD00081-1

> <s_m_source_file>
MCD00081.smi

$$$$
MCD00082
                    3D
 Schrodinger Suite 2023-4.
 48 51  0  0  1  0            999 V2000
   -2.1132    2.1626   -5.2651 C   0  0  0  0  0  0
   -3.0024    2.4678   -4.1487 N   0  0  0  0  0  0
   -2.9198    3.7592   -3.4612 C   0  0  0  0  0  0
   -1.5591    4.4428   -3.5141 C   0  0  0  0  0  0
   -1.3014    5.3663   -4.5497 C   0  0  0  0  0  0
   -0.0442    5.9877   -4.6550 C   0  0  0  0  0  0
    0.1951    6.8706   -5.6533 F   0  0  0  0  0  0
    0.9634    5.6891   -3.7212 C   0  0  0  0  0  0
    0.7132    4.7720   -2.6832 C   0  0  0  0  0  0
   -0.5486    4.1389   -2.5682 C   0  0  0  0  0  0
   -0.8366    3.2642   -1.5443 O   0  0  0  0  0  0
    0.1671    2.3117   -1.2106 C   0  0  0  0  0  0
   -0.3552    1.4262   -0.0628 C   0  0  0  0  0  0
    0.1978    0.0536   -0.0825 N   0  0  2  0  0  0
    1.8887   -0.1598    0.2726 S   0  0  0  0  0  0
    2.1454   -1.6039    0.3865 O   0  0  0  0  0  0
    2.6651    0.6375   -0.6891 O   0  0  0  0  0  0
    2.0762    0.5776    1.9503 C   0  0  0  0  0  0
    3.6845    0.2499    2.6426 Cl  0  0  0  0  0  0
   -0.3987   -0.8386   -1.1007 C   0  0  0  0  0  0
   -1.8862   -1.0942   -1.0922 C   0  0  0  0  0  0
   -2.7459   -1.9487   -0.3841 C   0  0  0  0  0  0
   -4.0002   -1.6739   -0.7214 N   0  0  0  0  0  0
   -3.8989   -0.6233   -1.6425 N   0  0  0  0  0  0
   -4.9511    0.0258   -2.2184 C   0  0  0  0  0  0
   -4.6637    1.0742   -3.0719 C   0  0  0  0  0  0
   -3.2997    1.4016   -3.3245 C   0  0  0  0  0  0
   -2.2763    0.7499   -2.7738 N   0  0  0  0  0  0
   -2.6000   -0.2487   -1.9304 C   0  0  0  0  0  0
   -2.4136    1.2359   -5.7555 H   0  0  0  0  0  0
   -1.0818    2.0525   -4.9275 H   0  0  0  0  0  0
   -2.1483    2.9595   -6.0081 H   0  0  0  0  0  0
   -3.6581    4.4211   -3.9147 H   0  0  0  0  0  0
   -3.2206    3.6588   -2.4169 H   0  0  0  0  0  0
   -2.0685    5.5930   -5.2756 H   0  0  0  0  0  0
    1.9281    6.1691   -3.7964 H   0  0  0  0  0  0
    1.5005    4.5839   -1.9700 H   0  0  0  0  0  0
    0.3937    1.7247   -2.1009 H   0  0  0  0  0  0
    1.0921    2.7869   -0.8873 H   0  0  0  0  0  0
   -0.1347    1.8982    0.8935 H   0  0  0  0  0  0
   -1.4423    1.3736   -0.0958 H   0  0  0  0  0  0
    1.9401    1.6570    1.8966 H   0  0  0  0  0  0
    1.3260    0.1505    2.6155 H   0  0  0  0  0  0
   -0.0591   -0.5132   -2.0844 H   0  0  0  0  0  0
    0.0734   -1.8139   -0.9906 H   0  0  0  0  0  0
   -2.5124   -2.7069    0.3489 H   0  0  0  0  0  0
   -5.9549   -0.2966   -1.9619 H   0  0  0  0  0  0
   -5.4680    1.6343   -3.5380 H   0  0  0  0  0  0
  1  2  1  0  0  0
  1 30  1  0  0  0
  1 31  1  0  0  0
  1 32  1  0  0  0
  2  3  1  0  0  0
  2 27  1  0  0  0
  3  4  1  0  0  0
  3 33  1  0  0  0
  3 34  1  0  0  0
  4  5  2  0  0  0
  4 10  1  0  0  0
  5  6  1  0  0  0
  5 35  1  0  0  0
  6  7  1  0  0  0
  6  8  2  0  0  0
  8  9  1  0  0  0
  8 36  1  0  0  0
  9 10  2  0  0  0
  9 37  1  0  0  0
 10 11  1  0  0  0
 11 12  1  0  0  0
 12 13  1  0  0  0
 12 38  1  0  0  0
 12 39  1  0  0  0
 13 14  1  0  0  0
 13 40  1  0  0  0
 13 41  1  0  0  0
 14 15  1  0  0  0
 14 20  1  0  0  0
 15 16  2  0  0  0
 15 17  2  0  0  0
 15 18  1  0  0  0
 18 19  1  0  0  0
 18 42  1  0  0  0
 18 43  1  0  0  0
 20 21  1  0  0  0
 20 44  1  0  0  0
 20 45  1  0  0  0
 21 22  1  0  0  0
 21 29  2  0  0  0
 22 23  2  0  0  0
 22 46  1  0  0  0
 23 24  1  0  0  0
 24 25  1  0  0  0
 24 29  1  0  0  0
 25 26  2  0  0  0
 25 47  1  0  0  0
 26 27  1  0  0  0
 26 48  1  0  0  0
 27 28  2  0  0  0
 28 29  1  0  0  0
M  END
> <i_epik_Tot_Q>
0

> <i_epik_Tot_abs_Q>
0

> <i_f3d_flags>
0

> <i_lp_mmshare_version>
64135

> <i_m_source_file_index>
1

> <b_lp_Chiralities_Consistent>
1

> <r_epik_Charging_Adjusted_Penalty>
0

> <r_epik_Ionization_Penalty>
2.49393e-06

> <r_epik_Ionization_Penalty_Charging>
0

> <r_epik_Ionization_Penalty_Neutral>
2.49393e-06

> <r_epik_State_Penalty>
-0

> <r_lp_Energy>
47.8745

> <r_lp_tautomer_probability>
1

> <s_epik_cmdline>
J2VwaWtfcHl0aG9uJywgJy1waCcsICc3LjAnLCAnLXRuJywgJzgnLCAnLW1hJywgJzIwMCcsICctaW1hZScsICc8aW5maWxlLm1hZT4nLCAnLW9tYWUnLCAnPG91dGZpbGUubWFlPic=

> <s_epik_input>
W0NIM11OKFtDSDJdMSljKG4yKVtjSF1bY0hdbihuW2NIXTMpYzJjM1tDSDJdTihTKD1PKSg9TylbQ0gyXUNsKVtDSDJdW0NIMl1PYyhjMTQpW2NIXVtjSF1jKEYpW2NIXTQ=

> <s_lp_Force_Field>
OPLS_2005

> <s_lp_Variant>
MCD00082-1

> <s_m_source_file>
MCD00082.smi

$$$$
MCD00083
                    3D
 Schrodinger Suite 2023-4.
 53 56  0  0  1  0            999 V2000
   -7.9488   -1.2866    6.4314 C   0  0  0  0  0  0
   -7.1416   -0.7560    5.2646 C   0  0  0  0  0  0
   -7.0450   -1.3467    4.0671 C   0  0  0  0  0  0
   -6.2413   -0.7505    3.0111 C   0  0  0  0  0  0
   -5.5847    0.4323    3.2578 C   0  0  0  0  0  0
   -5.6914    1.0685    4.5938 C   0  0  0  0  0  0
   -5.1290    2.1136    4.9179 O   0  0  0  0  0  0
   -6.4644    0.4353    5.5012 N   0  0  0  0  0  0
   -4.6614    1.1601    2.2620 C   0  0  0  0  0  0
   -5.2611    1.4059    0.9546 N   0  0  0  0  0  0
   -4.6576    1.8217   -0.1756 C   0  0  0  0  0  0
   -5.3075    2.0609   -1.1909 O   0  0  0  0  0  0
   -3.1664    2.0325   -0.1898 C   0  0  0  0  0  0
   -2.6727    3.3361   -0.4106 C   0  0  0  0  0  0
   -1.2976    3.5948   -0.4703 C   0  0  0  0  0  0
   -0.7226    5.2000   -0.7320 Cl  0  0  0  0  0  0
   -0.3938    2.5367   -0.3131 C   0  0  0  0  0  0
   -0.8408    1.2400   -0.1114 C   0  0  0  0  0  0
   -2.2119    0.9772   -0.0701 C   0  0  0  0  0  0
   -2.2885   -0.4343    0.1114 C   0  0  0  0  0  0
   -1.0357   -0.9687    0.2339 C   0  0  0  0  0  0
   -0.1380    0.0729    0.0788 N   0  0  0  0  0  0
    1.3179   -0.0411    0.1007 C   0  0  0  0  0  0
    1.8191   -0.8096   -1.1311 C   0  0  0  0  0  0
    1.8016   -0.6816    1.4113 C   0  0  0  0  0  0
   -3.5302   -1.1856    0.2687 C   0  0  0  0  0  0
   -3.7804   -2.0177    1.2913 C   0  0  0  0  0  0
   -5.1485   -2.6006    1.5613 C   0  0  0  0  0  0
   -6.2372   -1.5112    1.6810 C   0  0  0  0  0  0
   -7.5904   -2.2752    6.7187 H   0  0  0  0  0  0
   -8.9998   -1.3711    6.1541 H   0  0  0  0  0  0
   -7.8785   -0.6326    7.3014 H   0  0  0  0  0  0
   -7.5703   -2.2742    3.8901 H   0  0  0  0  0  0
   -6.5618    0.8412    6.4207 H   0  0  0  0  0  0
   -4.3634    2.1422    2.6288 H   0  0  0  0  0  0
   -3.7344    0.5988    2.1994 H   0  0  0  0  0  0
   -6.2619    1.2805    0.9063 H   0  0  0  0  0  0
   -3.3653    4.1566   -0.5336 H   0  0  0  0  0  0
    0.6621    2.7544   -0.3550 H   0  0  0  0  0  0
   -0.7152   -1.9858    0.4054 H   0  0  0  0  0  0
    1.7516    0.9560    0.0605 H   0  0  0  0  0  0
    2.9086   -0.8463   -1.1522 H   0  0  0  0  0  0
    1.4884   -0.3302   -2.0531 H   0  0  0  0  0  0
    1.4520   -1.8364   -1.1394 H   0  0  0  0  0  0
    2.8908   -0.6975    1.4588 H   0  0  0  0  0  0
    1.4528   -1.7096    1.5119 H   0  0  0  0  0  0
    1.4435   -0.1212    2.2755 H   0  0  0  0  0  0
   -4.3053   -0.9865   -0.4563 H   0  0  0  0  0  0
   -3.0238   -2.1939    2.0422 H   0  0  0  0  0  0
   -5.3926   -3.2704    0.7361 H   0  0  0  0  0  0
   -5.1121   -3.2153    2.4613 H   0  0  0  0  0  0
   -6.2389   -0.8508    0.8198 H   0  0  0  0  0  0
   -7.2019   -2.0145    1.6051 H   0  0  0  0  0  0
  1  2  1  0  0  0
  1 30  1  0  0  0
  1 31  1  0  0  0
  1 32  1  0  0  0
  2  3  2  0  0  0
  2  8  1  0  0  0
  3  4  1  0  0  0
  3 33  1  0  0  0
  4  5  2  0  0  0
  4 29  1  0  0  0
  5  6  1  0  0  0
  5  9  1  0  0  0
  6  7  2  0  0  0
  6  8  1  0  0  0
  8 34  1  0  0  0
  9 10  1  0  0  0
  9 35  1  0  0  0
  9 36  1  0  0  0
 10 11  1  0  0  0
 10 37  1  0  0  0
 11 12  2  0  0  0
 11 13  1  0  0  0
 13 14  2  0  0  0
 13 19  1  0  0  0
 14 15  1  0  0  0
 14 38  1  0  0  0
 15 16  1  0  0  0
 15 17  2  0  0  0
 17 18  1  0  0  0
 17 39  1  0  0  0
 18 19  2  0  0  0
 18 22  1  0  0  0
 19 20  1  0  0  0
 20 21  2  0  0  0
 20 26  1  0  0  0
 21 22  1  0  0  0
 21 40  1  0  0  0
 22 23  1  0  0  0
 23 24  1  0  0  0
 23 25  1  0  0  0
 23 41  1  0  0  0
 24 42  1  0  0  0
 24 43  1  0  0  0
 24 44  1  0  0  0
 25 45  1  0  0  0
 25 46  1  0  0  0
 25 47  1  0  0  0
 26 27  2  0  0  0
 26 48  1  0  0  0
 27 28  1  0  0  0
 27 49  1  0  0  0
 28 29  1  0  0  0
 28 50  1  0  0  0
 28 51  1  0  0  0
 29 52  1  0  0  0
 29 53  1  0  0  0
M  END
> <i_epik_Tot_Q>
0

> <i_epik_Tot_abs_Q>
0

> <i_f3d_flags>
0

> <i_lp_mmshare_version>
64135

> <i_m_source_file_index>
1

> <b_lp_Chiralities_Consistent>
1

> <r_epik_Charging_Adjusted_Penalty>
2.70226e-06

> <r_epik_Ionization_Penalty>
4.28463e-06

> <r_epik_Ionization_Penalty_Charging>
2.70226e-06

> <r_epik_Ionization_Penalty_Neutral>
1.58237e-06

> <r_epik_State_Penalty>
-0

> <r_lp_Energy>
51.2745

> <r_lp_tautomer_probability>
1

> <s_epik_cmdline>
J2VwaWtfcHl0aG9uJywgJy1waCcsICc3LjAnLCAnLXRuJywgJzgnLCAnLW1hJywgJzIwMCcsICctaW1hZScsICc8aW5maWxlLm1hZT4nLCAnLW9tYWUnLCAnPG91dGZpbGUubWFlPic=

> <s_epik_input>
W0NIM11jKFtjSF0xKVtuSF1jKD1PKWMoYzEyKVtDSDJdW05IXUMoPU8pYzNjNGMoW2NIXWMoQ2wpW2NIXTMpbihbQ0hdKFtDSDNdKVtDSDNdKVtjSF1jNC9bQ0hdPVtDSF0vW0NIMl1bQ0gyXTI=

> <s_lp_Force_Field>
OPLS_2005

> <s_lp_Variant>
MCD00083-1

> <s_m_source_file>
MCD00083.smi

$$$$
MCD00084
                    3D
 Schrodinger Suite 2023-4.
 52 55  0  0  1  0            999 V2000
   -0.0138    0.0900   -0.4992 C   0  0  0  0  0  0
    1.3808    0.0016   -0.2474 O   0  0  0  0  0  0
    1.9426   -1.2508   -0.1069 C   0  0  0  0  0  0
    1.2057   -2.4557   -0.1643 C   0  0  0  0  0  0
    1.8160   -3.7154   -0.0003 C   0  0  0  0  0  0
    1.1371   -4.8833   -0.0460 N   0  0  0  0  0  0
    1.8141   -6.0161    0.1147 C   0  0  0  0  0  0
    3.1235   -6.1298    0.3127 N   0  0  0  0  0  0
    3.8693   -5.0018    0.3720 C   0  0  0  0  0  0
    3.2230   -3.7433    0.2222 C   0  0  0  0  0  0
    3.9874   -2.5549    0.2967 C   0  0  0  0  0  0
    3.3315   -1.3227    0.1254 C   0  0  0  0  0  0
    4.0915   -0.1864    0.2283 O   0  0  0  0  0  0
    4.2700    0.5329   -0.9837 C   0  0  0  0  0  0
    5.7691    0.7876   -1.1818 C   0  0  0  0  0  0
    6.3932   -0.3917   -1.6664 O   0  0  0  0  0  0
    7.7987   -0.2491   -1.8089 C   0  0  0  0  0  0
    8.3677   -1.4743   -2.5332 C   0  0  0  0  0  0
    8.4670   -2.5715   -1.6385 O   0  0  0  0  0  0
    8.8616   -3.7660   -2.2967 C   0  0  0  0  0  0
    8.9207   -4.9240   -1.2950 C   0  0  0  0  0  0
    7.6145   -5.1037   -0.7711 O   0  0  0  0  0  0
    7.3469   -6.1907    0.0363 C   0  0  0  0  0  0
    8.2419   -7.2717    0.2327 C   0  0  0  0  0  0
    7.8748   -8.3611    1.0452 C   0  0  0  0  0  0
    6.6165   -8.3814    1.6732 C   0  0  0  0  0  0
    5.7256   -7.3074    1.4947 C   0  0  0  0  0  0
    6.0862   -6.2131    0.6771 C   0  0  0  0  0  0
    5.2615   -5.0893    0.5284 N   0  0  0  0  0  0
   -0.2937    1.1375   -0.6094 H   0  0  0  0  0  0
   -0.5944   -0.3212    0.3276 H   0  0  0  0  0  0
   -0.2854   -0.4221   -1.4231 H   0  0  0  0  0  0
    0.1400   -2.4439   -0.3330 H   0  0  0  0  0  0
    1.2459   -6.9335    0.0745 H   0  0  0  0  0  0
    5.0525   -2.5609    0.4757 H   0  0  0  0  0  0
    3.8512    0.0252   -1.8553 H   0  0  0  0  0  0
    3.7447    1.4830   -0.8853 H   0  0  0  0  0  0
    5.9060    1.5857   -1.9128 H   0  0  0  0  0  0
    6.2261    1.1187   -0.2479 H   0  0  0  0  0  0
    8.0097    0.6388   -2.4070 H   0  0  0  0  0  0
    8.2781   -0.1101   -0.8387 H   0  0  0  0  0  0
    7.7431   -1.7192   -3.3937 H   0  0  0  0  0  0
    9.3645   -1.2434   -2.9114 H   0  0  0  0  0  0
    8.1574   -4.0079   -3.0943 H   0  0  0  0  0  0
    9.8408   -3.6269   -2.7571 H   0  0  0  0  0  0
    9.2562   -5.8154   -1.8258 H   0  0  0  0  0  0
    9.6285   -4.7128   -0.4926 H   0  0  0  0  0  0
    9.2149   -7.2935   -0.2328 H   0  0  0  0  0  0
    8.5615   -9.1824    1.1877 H   0  0  0  0  0  0
    6.3392   -9.2144    2.3021 H   0  0  0  0  0  0
    4.7762   -7.3224    2.0088 H   0  0  0  0  0  0
    5.7565   -4.2359    0.3128 H   0  0  0  0  0  0
  1  2  1  0  0  0
  1 30  1  0  0  0
  1 31  1  0  0  0
  1 32  1  0  0  0
  2  3  1  0  0  0
  3  4  2  0  0  0
  3 12  1  0  0  0
  4  5  1  0  0  0
  4 33  1  0  0  0
  5  6  2  0  0  0
  5 10  1  0  0  0
  6  7  1  0  0  0
  7  8  2  0  0  0
  7 34  1  0  0  0
  8  9  1  0  0  0
  9 10  2  0  0  0
  9 29  1  0  0  0
 10 11  1  0  0  0
 11 12  2  0  0  0
 11 35  1  0  0  0
 12 13  1  0  0  0
 13 14  1  0  0  0
 14 15  1  0  0  0
 14 36  1  0  0  0
 14 37  1  0  0  0
 15 16  1  0  0  0
 15 38  1  0  0  0
 15 39  1  0  0  0
 16 17  1  0  0  0
 17 18  1  0  0  0
 17 40  1  0  0  0
 17 41  1  0  0  0
 18 19  1  0  0  0
 18 42  1  0  0  0
 18 43  1  0  0  0
 19 20  1  0  0  0
 20 21  1  0  0  0
 20 44  1  0  0  0
 20 45  1  0  0  0
 21 22  1  0  0  0
 21 46  1  0  0  0
 21 47  1  0  0  0
 22 23  1  0  0  0
 23 24  2  0  0  0
 23 28  1  0  0  0
 24 25  1  0  0  0
 24 48  1  0  0  0
 25 26  2  0  0  0
 25 49  1  0  0  0
 26 27  1  0  0  0
 26 50  1  0  0  0
 27 28  2  0  0  0
 27 51  1  0  0  0
 28 29  1  0  0  0
 29 52  1  0  0  0
M  END
> <i_epik_Tot_Q>
0

> <i_epik_Tot_abs_Q>
0

> <i_f3d_flags>
0

> <i_lp_mmshare_version>
64135

> <i_m_source_file_index>
1

> <b_lp_Chiralities_Consistent>
1

> <r_epik_Charging_Adjusted_Penalty>
0

> <r_epik_Ionization_Penalty>
0.00109272

> <r_epik_Ionization_Penalty_Charging>
0

> <r_epik_Ionization_Penalty_Neutral>
0.00109272

> <r_epik_State_Penalty>
-0

> <r_lp_Energy>
35.8714

> <r_lp_tautomer_probability>
1

> <s_epik_cmdline>
J2VwaWtfcHl0aG9uJywgJy1waCcsICc3LjAnLCAnLXRuJywgJzgnLCAnLW1hJywgJzIwMCcsICctaW1hZScsICc8aW5maWxlLm1hZT4nLCAnLW9tYWUnLCAnPG91dGZpbGUubWFlPic=

> <s_epik_input>
W0NIM11PYyhbY0hdMSljKFtjSF0yKU9bQ0gyXVtDSDJdT1tDSDJdW0NIMl1PW0NIMl1bQ0gyXU9jKFtjSF1bY0hdW2NIXVtjSF0zKWMzW05IXWMoYzJjMTQpbltjSF1uNA==

> <s_lp_Force_Field>
OPLS_2005

> <s_lp_Variant>
MCD00084-1

> <s_m_source_file>
MCD00084.smi

$$$$
MCD00085
                    3D
 Schrodinger Suite 2023-4.
 50 53  0  0  1  0            999 V2000
    0.0939    0.0064    0.0390 C   0  0  0  0  0  0
    1.4923   -0.1688    0.2114 O   0  0  0  0  0  0
    2.0107   -1.4420    0.0944 C   0  0  0  0  0  0
    1.2309   -2.5927   -0.1659 C   0  0  0  0  0  0
    1.8025   -3.8776   -0.2648 C   0  0  0  0  0  0
    1.0855   -5.0002   -0.4970 N   0  0  0  0  0  0
    1.7290   -6.1627   -0.5624 C   0  0  0  0  0  0
    3.0402   -6.3469   -0.4369 N   0  0  0  0  0  0
    3.8203   -5.2649   -0.2199 C   0  0  0  0  0  0
    3.2137   -3.9842   -0.1050 C   0  0  0  0  0  0
    4.0178   -2.8573    0.1744 C   0  0  0  0  0  0
    3.4011   -1.5941    0.2608 C   0  0  0  0  0  0
    4.1872   -0.5082    0.5563 O   0  0  0  0  0  0
    4.6138    0.2609   -0.5649 C   0  0  0  0  0  0
    5.6473   -0.4829   -1.4321 C   0  0  0  0  0  0
    6.9159   -0.8981   -0.6643 C   0  0  0  0  0  0
    7.7469   -1.9278   -1.4472 C   0  0  0  0  0  0
    8.9576   -2.4958   -0.6835 C   0  0  0  0  0  0
    8.6086   -3.3131    0.5734 C   0  0  0  0  0  0
    7.6413   -4.3033    0.2462 O   0  0  0  0  0  0
    7.1413   -5.0943    1.2614 C   0  0  0  0  0  0
    7.8173   -5.3067    2.4885 C   0  0  0  0  0  0
    7.2590   -6.1367    3.4790 C   0  0  0  0  0  0
    7.9218   -6.3306    4.6443 F   0  0  0  0  0  0
    6.0183   -6.7635    3.2572 C   0  0  0  0  0  0
    5.3290   -7.7842    4.4665 Cl  0  0  0  0  0  0
    5.3344   -6.5532    2.0459 C   0  0  0  0  0  0
    5.8896   -5.7200    1.0497 C   0  0  0  0  0  0
    5.2050   -5.4593   -0.1435 N   0  0  0  0  0  0
   -0.1523    1.0624    0.1494 H   0  0  0  0  0  0
   -0.4727   -0.5442    0.7912 H   0  0  0  0  0  0
   -0.2275   -0.3044   -0.9560 H   0  0  0  0  0  0
    0.1616   -2.5182   -0.2912 H   0  0  0  0  0  0
    1.1287   -7.0420   -0.7430 H   0  0  0  0  0  0
    5.0829   -2.9425    0.3212 H   0  0  0  0  0  0
    3.7543    0.5517   -1.1708 H   0  0  0  0  0  0
    5.0512    1.1864   -0.1896 H   0  0  0  0  0  0
    5.1760   -1.3616   -1.8726 H   0  0  0  0  0  0
    5.9309    0.1477   -2.2751 H   0  0  0  0  0  0
    7.5200   -0.0183   -0.4405 H   0  0  0  0  0  0
    6.6356   -1.3209    0.2988 H   0  0  0  0  0  0
    7.1057   -2.7539   -1.7573 H   0  0  0  0  0  0
    8.0991   -1.4652   -2.3698 H   0  0  0  0  0  0
    9.5180   -3.1371   -1.3647 H   0  0  0  0  0  0
    9.6341   -1.6847   -0.4123 H   0  0  0  0  0  0
    9.5225   -3.7779    0.9435 H   0  0  0  0  0  0
    8.2259   -2.6618    1.3603 H   0  0  0  0  0  0
    8.7732   -4.8496    2.6918 H   0  0  0  0  0  0
    4.3794   -7.0332    1.8905 H   0  0  0  0  0  0
    5.7108   -4.7556   -0.6622 H   0  0  0  0  0  0
  1  2  1  0  0  0
  1 30  1  0  0  0
  1 31  1  0  0  0
  1 32  1  0  0  0
  2  3  1  0  0  0
  3  4  2  0  0  0
  3 12  1  0  0  0
  4  5  1  0  0  0
  4 33  1  0  0  0
  5  6  2  0  0  0
  5 10  1  0  0  0
  6  7  1  0  0  0
  7  8  2  0  0  0
  7 34  1  0  0  0
  8  9  1  0  0  0
  9 10  2  0  0  0
  9 29  1  0  0  0
 10 11  1  0  0  0
 11 12  2  0  0  0
 11 35  1  0  0  0
 12 13  1  0  0  0
 13 14  1  0  0  0
 14 15  1  0  0  0
 14 36  1  0  0  0
 14 37  1  0  0  0
 15 16  1  0  0  0
 15 38  1  0  0  0
 15 39  1  0  0  0
 16 17  1  0  0  0
 16 40  1  0  0  0
 16 41  1  0  0  0
 17 18  1  0  0  0
 17 42  1  0  0  0
 17 43  1  0  0  0
 18 19  1  0  0  0
 18 44  1  0  0  0
 18 45  1  0  0  0
 19 20  1  0  0  0
 19 46  1  0  0  0
 19 47  1  0  0  0
 20 21  1  0  0  0
 21 22  2  0  0  0
 21 28  1  0  0  0
 22 23  1  0  0  0
 22 48  1  0  0  0
 23 24  1  0  0  0
 23 25  2  0  0  0
 25 26  1  0  0  0
 25 27  1  0  0  0
 27 28  2  0  0  0
 27 49  1  0  0  0
 28 29  1  0  0  0
 29 50  1  0  0  0
M  END
> <i_epik_Tot_Q>
0

> <i_epik_Tot_abs_Q>
0

> <i_f3d_flags>
0

> <i_lp_mmshare_version>
64135

> <i_m_source_file_index>
1

> <b_lp_Chiralities_Consistent>
1

> <r_epik_Charging_Adjusted_Penalty>
0

> <r_epik_Ionization_Penalty>
0.00137457

> <r_epik_Ionization_Penalty_Charging>
0

> <r_epik_Ionization_Penalty_Neutral>
0.00137457

> <r_epik_State_Penalty>
-0

> <r_lp_Energy>
40.4217

> <r_lp_tautomer_probability>
1

> <s_epik_cmdline>
J2VwaWtfcHl0aG9uJywgJy1waCcsICc3LjAnLCAnLXRuJywgJzgnLCAnLW1hJywgJzIwMCcsICctaW1hZScsICc8aW5maWxlLm1hZT4nLCAnLW9tYWUnLCAnPG91dGZpbGUubWFlPic=

> <s_epik_input>
W0NIM11PYyhbY0hdMSljKFtjSF0yKU9bQ0gyXVtDSDJdW0NIMl1bQ0gyXVtDSDJdW0NIMl1PYyhbY0hdYyhGKWMoQ2wpW2NIXTMpYzNbTkhdYyhjMmMxNCluW2NIXW40

> <s_lp_Force_Field>
OPLS_2005

> <s_lp_Variant>
MCD00085-1

> <s_m_source_file>
MCD00085.smi

$$$$
MCD00086
                    3D
 Schrodinger Suite 2023-4.
 48 53  0  0  1  0            999 V2000
   -0.0396   -0.0313    0.0475 C   0  0  0  0  0  0
    1.4949   -0.0096   -0.0123 C   0  0  2  0  0  0
    2.0003    0.7795   -1.2325 C   0  0  0  0  0  0
    3.4223    0.9025   -1.1614 O   0  0  0  0  0  0
    4.0492    2.0109   -1.6977 C   0  0  0  0  0  0
    3.3008    2.8940   -2.4063 N   0  0  0  0  0  0
    3.8957    3.9996   -2.8983 C   0  0  0  0  0  0
    5.2601    4.2821   -2.7119 C   0  0  0  0  0  0
    5.8110    5.4106   -3.2181 F   0  0  0  0  0  0
    6.0398    3.3614   -1.9904 C   0  0  0  0  0  0
    5.4386    2.1902   -1.4786 C   0  0  0  0  0  0
    6.2758    1.1870   -0.7303 C   0  0  1  0  0  0
    6.5090   -0.2120   -1.2613 C   0  0  0  0  0  0
    7.6280    0.7984   -1.2790 C   0  0  2  0  0  0
    8.6329    0.9254   -0.1620 C   0  0  0  0  0  0
    7.8763    1.5884    0.9992 C   0  0  0  0  0  0
    6.4526    1.4848    0.6907 N   0  0  0  0  0  0
    5.6074    0.9593    1.6617 C   0  0  0  0  0  0
    5.7239    1.3818    3.0226 C   0  0  0  0  0  0
    4.8887    0.8272    3.9746 C   0  0  0  0  0  0
    3.9863   -0.1050    3.5553 N   0  0  0  0  0  0
    3.0804   -0.7855    4.3681 N   0  0  0  0  0  0
    2.4320   -1.5920    3.5369 C   0  0  0  0  0  0
    2.8960   -1.4063    2.2193 C   0  0  0  0  0  0
    3.9138   -0.4597    2.2257 C   0  0  0  0  0  0
    4.7117    0.0528    1.2733 N   0  0  0  0  0  0
    2.4713   -2.1224    0.9827 C   0  0  0  0  0  0
    2.5702   -3.3439    0.8971 O   0  0  0  0  0  0
    1.9878   -1.3890   -0.0393 N   0  0  0  0  0  0
   -0.4455    0.9795    0.0939 H   0  0  0  0  0  0
   -0.3902   -0.5650    0.9316 H   0  0  0  0  0  0
   -0.4654   -0.5211   -0.8289 H   0  0  0  0  0  0
    1.8363    0.5204    0.8753 H   0  0  0  0  0  0
    1.7209    0.2886   -2.1657 H   0  0  0  0  0  0
    1.4999    1.7482   -1.2107 H   0  0  0  0  0  0
    3.2649    4.6799   -3.4509 H   0  0  0  0  0  0
    7.0923    3.5500   -1.8370 H   0  0  0  0  0  0
    6.5990   -1.0331   -0.5526 H   0  0  0  0  0  0
    6.0549   -0.4710   -2.2156 H   0  0  0  0  0  0
    7.9324    1.1752   -2.2537 H   0  0  0  0  0  0
    8.9893   -0.0675    0.1135 H   0  0  0  0  0  0
    9.4887    1.5225   -0.4770 H   0  0  0  0  0  0
    8.1396    1.1130    1.9445 H   0  0  0  0  0  0
    8.1376    2.6442    1.0733 H   0  0  0  0  0  0
    6.4542    2.1280    3.3182 H   0  0  0  0  0  0
    4.9094    1.0821    5.0292 H   0  0  0  0  0  0
    1.6660   -2.2626    3.8975 H   0  0  0  0  0  0
    1.7879   -1.8968   -0.8889 H   0  0  0  0  0  0
  1  2  1  0  0  0
  1 30  1  0  0  0
  1 31  1  0  0  0
  1 32  1  0  0  0
  2  3  1  0  0  0
  2 29  1  0  0  0
  2 33  1  0  0  0
  3  4  1  0  0  0
  3 34  1  0  0  0
  3 35  1  0  0  0
  4  5  1  0  0  0
  5  6  2  0  0  0
  5 11  1  0  0  0
  6  7  1  0  0  0
  7  8  2  0  0  0
  7 36  1  0  0  0
  8  9  1  0  0  0
  8 10  1  0  0  0
 10 11  2  0  0  0
 10 37  1  0  0  0
 11 12  1  0  0  0
 12 13  1  0  0  0
 12 14  1  0  0  0
 12 17  1  0  0  0
 13 14  1  0  0  0
 13 38  1  0  0  0
 13 39  1  0  0  0
 14 15  1  0  0  0
 14 40  1  0  0  0
 15 16  1  0  0  0
 15 41  1  0  0  0
 15 42  1  0  0  0
 16 17  1  0  0  0
 16 43  1  0  0  0
 16 44  1  0  0  0
 17 18  1  0  0  0
 18 19  1  0  0  0
 18 26  2  0  0  0
 19 20  2  0  0  0
 19 45  1  0  0  0
 20 21  1  0  0  0
 20 46  1  0  0  0
 21 22  1  0  0  0
 21 25  1  0  0  0
 22 23  2  0  0  0
 23 24  1  0  0  0
 23 47  1  0  0  0
 24 25  2  0  0  0
 24 27  1  0  0  0
 25 26  1  0  0  0
 27 28  2  0  0  0
 27 29  1  0  0  0
 29 48  1  0  0  0
M  END
> <i_epik_Tot_Q>
0

> <i_epik_Tot_abs_Q>
0

> <i_f3d_flags>
0

> <i_lp_mmshare_version>
64135

> <i_m_source_file_index>
1

> <b_lp_Chiralities_Consistent>
1

> <r_epik_Charging_Adjusted_Penalty>
0

> <r_epik_Ionization_Penalty>
0.00026732

> <r_epik_Ionization_Penalty_Charging>
0

> <r_epik_Ionization_Penalty_Neutral>
0.00026732

> <r_epik_State_Penalty>
-0

> <r_lp_Energy>
79.2659

> <r_lp_tautomer_probability>
1

> <s_epik_cmdline>
J2VwaWtfcHl0aG9uJywgJy1waCcsICc3LjAnLCAnLXRuJywgJzgnLCAnLW1hJywgJzIwMCcsICctaW1hZScsICc8aW5maWxlLm1hZT4nLCAnLW9tYWUnLCAnPG91dGZpbGUubWFlPic=

> <s_epik_input>
RmMoW2NIXTEpW2NIXW5jKGMxW0NAQF0yMzQpT1tDSDJdW0NAQEhdKFtDSDNdKVtOSF1DKD1PKWM1YzZuKG5bY0hdNSlbY0hdW2NIXWMobjYpTjRbQ0gyXVtDSDJdW0NASF0zW0NIMl0y

> <s_lp_Force_Field>
OPLS_2005

> <s_lp_Variant>
MCD00086-1

> <s_m_source_file>
MCD00086.smi

$$$$
MCD00086
                    3D
 Schrodinger Suite 2023-4.
 48 53  0  0  1  0            999 V2000
   -0.0716   -0.0230    0.0579 C   0  0  0  0  0  0
    1.4638   -0.0358    0.0186 C   0  0  2  0  0  0
    2.0021    0.7287   -1.2082 C   0  0  0  0  0  0
    3.3488    1.1493   -0.9925 O   0  0  0  0  0  0
    4.4080    0.3353   -1.3441 C   0  0  0  0  0  0
    4.1726   -0.7183   -2.1645 N   0  0  0  0  0  0
    5.2077   -1.5187   -2.4928 C   0  0  0  0  0  0
    6.5185   -1.3112   -2.0248 C   0  0  0  0  0  0
    7.5226   -2.1462   -2.3824 F   0  0  0  0  0  0
    6.7609   -0.2175   -1.1739 C   0  0  0  0  0  0
    5.6916    0.6332   -0.8224 C   0  0  0  0  0  0
    5.9134    1.7932    0.1162 C   0  0  2  0  0  0
    5.4076    3.1861   -0.2099 C   0  0  0  0  0  0
    6.8835    2.8672   -0.2871 C   0  0  1  0  0  0
    7.8371    3.0766    0.8607 C   0  0  0  0  0  0
    7.1523    2.4146    2.0637 C   0  0  0  0  0  0
    6.1999    1.4502    1.5154 N   0  0  0  0  0  0
    5.2711    0.8239    2.3488 C   0  0  0  0  0  0
    5.2478    1.0681    3.7611 C   0  0  0  0  0  0
    4.3152    0.4179    4.5472 C   0  0  0  0  0  0
    3.4608   -0.4451    3.9303 N   0  0  0  0  0  0
    2.4779   -1.2048    4.5623 N   0  0  0  0  0  0
    1.9338   -1.9174    3.5844 C   0  0  0  0  0  0
    2.5385   -1.5955    2.3528 C   0  0  0  0  0  0
    3.5314   -0.6452    2.5692 C   0  0  0  0  0  0
    4.4244   -0.0302    1.7741 N   0  0  0  0  0  0
    2.2823   -2.2188    1.0230 C   0  0  0  0  0  0
    2.3987   -3.4321    0.8691 O   0  0  0  0  0  0
    1.9229   -1.4252   -0.0036 N   0  0  0  0  0  0
   -0.4551    0.9969    0.0997 H   0  0  0  0  0  0
   -0.4465   -0.5479    0.9374 H   0  0  0  0  0  0
   -0.4966   -0.5025   -0.8245 H   0  0  0  0  0  0
    1.8067    0.4879    0.9091 H   0  0  0  0  0  0
    1.8446    0.1819   -2.1387 H   0  0  0  0  0  0
    1.4302    1.6498   -1.3230 H   0  0  0  0  0  0
    4.9842   -2.3486   -3.1467 H   0  0  0  0  0  0
    7.7539   -0.0361   -0.7898 H   0  0  0  0  0  0
    4.8893    3.3388   -1.1544 H   0  0  0  0  0  0
    5.0756    3.8213    0.6090 H   0  0  0  0  0  0
    7.3220    2.8412   -1.2831 H   0  0  0  0  0  0
    8.7773    2.5738    0.6320 H   0  0  0  0  0  0
    8.0391    4.1358    1.0209 H   0  0  0  0  0  0
    7.8765    1.9317    2.7205 H   0  0  0  0  0  0
    6.6165    3.1713    2.6384 H   0  0  0  0  0  0
    5.9425    1.7500    4.2386 H   0  0  0  0  0  0
    4.2285    0.5421    5.6217 H   0  0  0  0  0  0
    1.1486   -2.6308    3.7879 H   0  0  0  0  0  0
    1.8318   -1.8859   -0.8978 H   0  0  0  0  0  0
  1  2  1  0  0  0
  1 30  1  0  0  0
  1 31  1  0  0  0
  1 32  1  0  0  0
  2  3  1  0  0  0
  2 29  1  0  0  0
  2 33  1  0  0  0
  3  4  1  0  0  0
  3 34  1  0  0  0
  3 35  1  0  0  0
  4  5  1  0  0  0
  5  6  2  0  0  0
  5 11  1  0  0  0
  6  7  1  0  0  0
  7  8  2  0  0  0
  7 36  1  0  0  0
  8  9  1  0  0  0
  8 10  1  0  0  0
 10 11  2  0  0  0
 10 37  1  0  0  0
 11 12  1  0  0  0
 12 13  1  0  0  0
 12 14  1  0  0  0
 12 17  1  0  0  0
 13 14  1  0  0  0
 13 38  1  0  0  0
 13 39  1  0  0  0
 14 15  1  0  0  0
 14 40  1  0  0  0
 15 16  1  0  0  0
 15 41  1  0  0  0
 15 42  1  0  0  0
 16 17  1  0  0  0
 16 43  1  0  0  0
 16 44  1  0  0  0
 17 18  1  0  0  0
 18 19  1  0  0  0
 18 26  2  0  0  0
 19 20  2  0  0  0
 19 45  1  0  0  0
 20 21  1  0  0  0
 20 46  1  0  0  0
 21 22  1  0  0  0
 21 25  1  0  0  0
 22 23  2  0  0  0
 23 24  1  0  0  0
 23 47  1  0  0  0
 24 25  2  0  0  0
 24 27  1  0  0  0
 25 26  1  0  0  0
 27 28  2  0  0  0
 27 29  1  0  0  0
 29 48  1  0  0  0
M  END
> <i_epik_Tot_Q>
0

> <i_epik_Tot_abs_Q>
0

> <i_f3d_flags>
0

> <i_lp_mmshare_version>
64135

> <i_m_source_file_index>
1

> <b_lp_Chiralities_Consistent>
1

> <r_epik_Charging_Adjusted_Penalty>
0

> <r_epik_Ionization_Penalty>
0.00026732

> <r_epik_Ionization_Penalty_Charging>
0

> <r_epik_Ionization_Penalty_Neutral>
0.00026732

> <r_epik_State_Penalty>
-0

> <r_lp_Energy>
78.4743

> <r_lp_tautomer_probability>
1

> <s_epik_cmdline>
J2VwaWtfcHl0aG9uJywgJy1waCcsICc3LjAnLCAnLXRuJywgJzgnLCAnLW1hJywgJzIwMCcsICctaW1hZScsICc8aW5maWxlLm1hZT4nLCAnLW9tYWUnLCAnPG91dGZpbGUubWFlPic=

> <s_epik_input>
RmMoW2NIXTEpW2NIXW5jKGMxW0NAQF0yMzQpT1tDSDJdW0NAQEhdKFtDSDNdKVtOSF1DKD1PKWM1YzZuKG5bY0hdNSlbY0hdW2NIXWMobjYpTjRbQ0gyXVtDSDJdW0NASF0zW0NIMl0y

> <s_lp_Force_Field>
OPLS_2005

> <s_lp_Variant>
MCD00086-2

> <s_m_source_file>
MCD00086.smi

$$$$
MCD00087
                    3D
 Schrodinger Suite 2023-4.
 57 61  0  0  1  0            999 V2000
    1.6741   -3.0825    1.2941 C   0  0  0  0  0  0
    1.4995   -2.3436    2.4750 C   0  0  0  0  0  0
    0.3232   -1.6150    2.7249 C   0  0  0  0  0  0
   -0.6760   -1.6689    1.7223 C   0  0  0  0  0  0
   -0.5168   -2.4123    0.5134 C   0  0  0  0  0  0
    0.6833   -3.1318    0.2961 C   0  0  0  0  0  0
   -1.5133   -2.4337   -0.4995 C   0  0  0  0  0  0
   -2.6977   -1.7251   -0.2255 C   0  0  0  0  0  0
   -2.8407   -1.0097    0.9672 C   0  0  0  0  0  0
   -1.8488   -0.9671    1.8888 N   0  3  0  0  0  0
   -2.1322   -0.0769    3.0540 C   0  0  0  0  0  0
   -1.8968    1.4060    2.6907 C   0  0  0  0  0  0
   -0.4243    1.8573    2.7200 C   0  0  0  0  0  0
   -0.1357    3.0754    1.8171 C   0  0  0  0  0  0
    0.0859    2.6506    0.4078 N   0  3  0  0  0  0
   -0.9626    2.7811   -0.4432 C   0  0  0  0  0  0
   -0.8784    2.3412   -1.7738 C   0  0  0  0  0  0
    0.3201    1.7698   -2.2429 C   0  0  0  0  0  0
    1.4245    1.6810   -1.3557 C   0  0  0  0  0  0
    2.6531    1.1214   -1.7850 C   0  0  0  0  0  0
    3.7357    0.9968   -0.8979 C   0  0  0  0  0  0
    3.6020    1.4236    0.4322 C   0  0  0  0  0  0
    2.3885    1.9793    0.8750 C   0  0  0  0  0  0
    1.2838    2.1240   -0.0055 C   0  0  0  0  0  0
    0.3761    1.2280   -3.5386 N   0  0  0  0  0  0
   -0.5664    0.1374   -3.7787 C   0  0  0  0  0  0
   -0.2875   -1.0808   -2.8765 C   0  0  0  0  0  0
   -1.4150   -2.1314   -2.8853 C   0  0  0  0  0  0
   -1.3187   -3.0466   -1.7499 N   0  0  0  0  0  0
    2.5956   -3.6269    1.1466 H   0  0  0  0  0  0
    2.2910   -2.3333    3.2102 H   0  0  0  0  0  0
    0.2598   -1.0589    3.6448 H   0  0  0  0  0  0
    0.8622   -3.7099   -0.5985 H   0  0  0  0  0  0
   -3.5029   -1.7063   -0.9455 H   0  0  0  0  0  0
   -3.7314   -0.4352    1.1797 H   0  0  0  0  0  0
   -3.1850   -0.2190    3.3045 H   0  0  0  0  0  0
   -1.6071   -0.3907    3.9510 H   0  0  0  0  0  0
   -2.3323    1.6039    1.7119 H   0  0  0  0  0  0
   -2.4580    2.0351    3.3825 H   0  0  0  0  0  0
   -0.1576    2.0971    3.7497 H   0  0  0  0  0  0
    0.2325    1.0398    2.4328 H   0  0  0  0  0  0
   -0.9584    3.7914    1.8509 H   0  0  0  0  0  0
    0.7394    3.6349    2.1458 H   0  0  0  0  0  0
   -1.8697    3.2083   -0.0405 H   0  0  0  0  0  0
   -1.7390    2.4311   -2.4207 H   0  0  0  0  0  0
    2.7863    0.7761   -2.7996 H   0  0  0  0  0  0
    4.6681    0.5692   -1.2372 H   0  0  0  0  0  0
    4.4317    1.3231    1.1168 H   0  0  0  0  0  0
    2.3410    2.2791    1.9100 H   0  0  0  0  0  0
    1.3103    1.0225   -3.8633 H   0  0  0  0  0  0
   -1.5851    0.4951   -3.6283 H   0  0  0  0  0  0
   -0.4991   -0.1568   -4.8263 H   0  0  0  0  0  0
    0.6580   -1.5470   -3.1564 H   0  0  0  0  0  0
   -0.1477   -0.7285   -1.8564 H   0  0  0  0  0  0
   -2.3890   -1.6423   -2.8827 H   0  0  0  0  0  0
   -1.3722   -2.7109   -3.8078 H   0  0  0  0  0  0
   -0.5166   -3.6589   -1.7956 H   0  0  0  0  0  0
  1  2  2  0  0  0
  1  6  1  0  0  0
  1 30  1  0  0  0
  2  3  1  0  0  0
  2 31  1  0  0  0
  3  4  2  0  0  0
  3 32  1  0  0  0
  4  5  1  0  0  0
  4 10  1  0  0  0
  5  6  2  0  0  0
  5  7  1  0  0  0
  6 33  1  0  0  0
  7  8  2  0  0  0
  7 29  1  0  0  0
  8  9  1  0  0  0
  8 34  1  0  0  0
  9 10  2  0  0  0
  9 35  1  0  0  0
 10 11  1  0  0  0
 11 12  1  0  0  0
 11 36  1  0  0  0
 11 37  1  0  0  0
 12 13  1  0  0  0
 12 38  1  0  0  0
 12 39  1  0  0  0
 13 14  1  0  0  0
 13 40  1  0  0  0
 13 41  1  0  0  0
 14 15  1  0  0  0
 14 42  1  0  0  0
 14 43  1  0  0  0
 15 16  2  0  0  0
 15 24  1  0  0  0
 16 17  1  0  0  0
 16 44  1  0  0  0
 17 18  2  0  0  0
 17 45  1  0  0  0
 18 19  1  0  0  0
 18 25  1  0  0  0
 19 20  2  0  0  0
 19 24  1  0  0  0
 20 21  1  0  0  0
 20 46  1  0  0  0
 21 22  2  0  0  0
 21 47  1  0  0  0
 22 23  1  0  0  0
 22 48  1  0  0  0
 23 24  2  0  0  0
 23 49  1  0  0  0
 25 26  1  0  0  0
 25 50  1  0  0  0
 26 27  1  0  0  0
 26 51  1  0  0  0
 26 52  1  0  0  0
 27 28  1  0  0  0
 27 53  1  0  0  0
 27 54  1  0  0  0
 28 29  1  0  0  0
 28 55  1  0  0  0
 28 56  1  0  0  0
 29 57  1  0  0  0
M  CHG  2  10   1  15   1
M  END
> <i_epik_Tot_Q>
2

> <i_epik_Tot_abs_Q>
2

> <i_f3d_flags>
0

> <i_lp_mmshare_version>
64135

> <i_m_source_file_index>
1

> <b_lp_Chiralities_Consistent>
1

> <r_epik_Charging_Adjusted_Penalty>
0

> <r_epik_Ionization_Penalty>
8.06657e-07

> <r_epik_Ionization_Penalty_Charging>
0

> <r_epik_Ionization_Penalty_Neutral>
8.06657e-07

> <r_epik_State_Penalty>
-0

> <r_lp_Energy>
67.1729

> <r_lp_tautomer_probability>
1

> <s_epik_cmdline>
J2VwaWtfcHl0aG9uJywgJy1waCcsICc3LjAnLCAnLXRuJywgJzgnLCAnLW1hJywgJzIwMCcsICctaW1hZScsICc8aW5maWxlLm1hZT4nLCAnLW9tYWUnLCAnPG91dGZpbGUubWFlPic=

> <s_epik_input>
W2NIXTFbY0hdW2NIXVtjSF1jKGMxMiljM1tjSF1bY0hdW24rXTJbQ0gyXVtDSDJdW0NIMl1bQ0gyXVtuK100YzVjKFtjSF1bY0hdW2NIXVtjSF01KWMoW2NIXVtjSF00KVtOSF1bQ0gyXVtDSDJdW0NIMl1bTkhdMw==

> <s_lp_Force_Field>
OPLS_2005

> <s_lp_Variant>
MCD00087-1

> <s_m_source_file>
MCD00087.smi

$$$$
MCD00088
                    3D
 Schrodinger Suite 2023-4.
 49 53  0  0  1  0            999 V2000
   -0.0809    0.1153    0.1065 C   0  0  0  0  0  0
    1.4534    0.0099   -0.0046 C   0  0  2  0  0  0
    1.9922    0.7586   -1.2336 C   0  0  0  0  0  0
    1.4979    0.1717   -2.4276 O   0  0  0  0  0  0
    1.6228   -1.1952   -2.4825 C   0  0  0  0  0  0
    1.5061   -1.8299   -3.7045 C   0  0  0  0  0  0
    1.6768   -3.1798   -3.7524 N   0  0  0  0  0  0
    1.6373   -3.9542   -4.9111 N   0  0  0  0  0  0
    1.9263   -5.1813   -4.4981 C   0  0  0  0  0  0
    2.1143   -5.1937   -3.1015 C   0  0  0  0  0  0
    1.9438   -3.9024   -2.6117 C   0  0  0  0  0  0
    2.0438   -3.3575   -1.3906 N   0  0  0  0  0  0
    1.8682   -2.0234   -1.2735 C   0  0  0  0  0  0
    1.9280   -1.3751    0.0032 N   0  0  0  0  0  0
    1.6209   -2.2098    1.1731 C   0  0  0  0  0  0
    2.5875   -3.3501    1.4827 C   0  0  0  0  0  0
    3.9406   -3.0511    1.7439 C   0  0  0  0  0  0
    4.8623   -4.0859    1.9819 C   0  0  0  0  0  0
    4.4320   -5.4245    1.9620 C   0  0  0  0  0  0
    5.5618   -6.6965    2.2484 Cl  0  0  0  0  0  0
    3.0811   -5.7299    1.7089 C   0  0  0  0  0  0
    2.1423   -4.6968    1.4636 C   0  0  0  0  0  0
    0.8028   -4.9154    1.2057 O   0  0  0  0  0  0
    0.3296   -6.1771    0.7359 C   0  0  1  0  0  0
   -1.1569   -6.2028    1.1135 C   0  0  0  0  0  0
    0.5006   -6.2884   -0.7950 C   0  0  0  0  0  0
    1.8593   -6.6734   -1.1652 N   0  0  0  0  0  0
    2.5698   -6.3389   -2.2582 C   0  0  0  0  0  0
    3.5836   -6.9652   -2.5575 O   0  0  0  0  0  0
   -0.3998    1.1577    0.0981 H   0  0  0  0  0  0
   -0.4458   -0.3252    1.0344 H   0  0  0  0  0  0
   -0.5831   -0.3889   -0.7197 H   0  0  0  0  0  0
    1.8796    0.4897    0.8769 H   0  0  0  0  0  0
    1.6917    1.8062   -1.2053 H   0  0  0  0  0  0
    3.0835    0.7445   -1.2467 H   0  0  0  0  0  0
    1.3164   -1.3111   -4.6385 H   0  0  0  0  0  0
    2.0112   -5.9975   -5.2005 H   0  0  0  0  0  0
    1.5985   -1.5672    2.0537 H   0  0  0  0  0  0
    0.6032   -2.5828    1.0619 H   0  0  0  0  0  0
    4.2757   -2.0242    1.7501 H   0  0  0  0  0  0
    5.8987   -3.8513    2.1750 H   0  0  0  0  0  0
    2.7965   -6.7693    1.7097 H   0  0  0  0  0  0
    0.7899   -7.0234    1.2425 H   0  0  0  0  0  0
   -1.6259   -7.1382    0.8073 H   0  0  0  0  0  0
   -1.7004   -5.3850    0.6391 H   0  0  0  0  0  0
   -1.2864   -6.1067    2.1918 H   0  0  0  0  0  0
   -0.1474   -7.0802   -1.1719 H   0  0  0  0  0  0
    0.1608   -5.3737   -1.2771 H   0  0  0  0  0  0
    2.2586   -7.4062   -0.5967 H   0  0  0  0  0  0
  1  2  1  0  0  0
  1 30  1  0  0  0
  1 31  1  0  0  0
  1 32  1  0  0  0
  2  3  1  0  0  0
  2 14  1  0  0  0
  2 33  1  0  0  0
  3  4  1  0  0  0
  3 34  1  0  0  0
  3 35  1  0  0  0
  4  5  1  0  0  0
  5  6  2  0  0  0
  5 13  1  0  0  0
  6  7  1  0  0  0
  6 36  1  0  0  0
  7  8  1  0  0  0
  7 11  1  0  0  0
  8  9  2  0  0  0
  9 10  1  0  0  0
  9 37  1  0  0  0
 10 11  2  0  0  0
 10 28  1  0  0  0
 11 12  1  0  0  0
 12 13  2  0  0  0
 13 14  1  0  0  0
 14 15  1  0  0  0
 15 16  1  0  0  0
 15 38  1  0  0  0
 15 39  1  0  0  0
 16 17  2  0  0  0
 16 22  1  0  0  0
 17 18  1  0  0  0
 17 40  1  0  0  0
 18 19  2  0  0  0
 18 41  1  0  0  0
 19 20  1  0  0  0
 19 21  1  0  0  0
 21 22  2  0  0  0
 21 42  1  0  0  0
 22 23  1  0  0  0
 23 24  1  0  0  0
 24 25  1  0  0  0
 24 26  1  0  0  0
 24 43  1  0  0  0
 25 44  1  0  0  0
 25 45  1  0  0  0
 25 46  1  0  0  0
 26 27  1  0  0  0
 26 47  1  0  0  0
 26 48  1  0  0  0
 27 28  1  0  0  0
 27 49  1  0  0  0
 28 29  2  0  0  0
M  END
> <i_epik_Tot_Q>
0

> <i_epik_Tot_abs_Q>
0

> <i_f3d_flags>
0

> <i_lp_mmshare_version>
64135

> <i_m_source_file_index>
1

> <b_lp_Chiralities_Consistent>
1

> <r_epik_Charging_Adjusted_Penalty>
0

> <r_epik_Ionization_Penalty>
8.5957e-06

> <r_epik_Ionization_Penalty_Charging>
0

> <r_epik_Ionization_Penalty_Neutral>
8.5957e-06

> <r_epik_State_Penalty>
-0

> <r_lp_Energy>
55.1876

> <r_lp_tautomer_probability>
1

> <s_epik_cmdline>
J2VwaWtfcHl0aG9uJywgJy1waCcsICc3LjAnLCAnLXRuJywgJzgnLCAnLW1hJywgJzIwMCcsICctaW1hZScsICc8aW5maWxlLm1hZT4nLCAnLW9tYWUnLCAnPG91dGZpbGUubWFlPic=

> <s_epik_input>
TzFbQ0gyXVtDQEBIXShbQ0gzXSlOKGMyYzEzKVtDSDJdYzRjKFtjSF1jKENsKVtjSF1bY0hdNClPW0NAQEhdKFtDSDNdKVtDSDJdW05IXUMoPU8pYzVjKG4yKW4oW2NIXTMpbltjSF01

> <s_lp_Force_Field>
OPLS_2005

> <s_lp_Variant>
MCD00088-1

> <s_m_source_file>
MCD00088.smi

$$$$
MCD00089
                    3D
 Schrodinger Suite 2023-4.
 49 53  0  0  1  0            999 V2000
   -0.0818    0.1114    0.1072 C   0  0  0  0  0  0
    1.4527    0.0092   -0.0040 C   0  0  2  0  0  0
    1.9886    0.7595   -1.2330 C   0  0  0  0  0  0
    1.4944    0.1718   -2.4267 O   0  0  0  0  0  0
    1.6216   -1.1949   -2.4820 C   0  0  0  0  0  0
    1.5031   -1.8293   -3.7040 C   0  0  0  0  0  0
    1.6756   -3.1789   -3.7526 N   0  0  0  0  0  0
    1.6342   -3.9529   -4.9114 N   0  0  0  0  0  0
    1.9259   -5.1795   -4.4998 C   0  0  0  0  0  0
    2.1172   -5.1921   -3.1036 C   0  0  0  0  0  0
    1.9461   -3.9013   -2.6127 C   0  0  0  0  0  0
    2.0477   -3.3568   -1.3913 N   0  0  0  0  0  0
    1.8702   -2.0230   -1.2737 C   0  0  0  0  0  0
    1.9306   -1.3749    0.0030 N   0  0  0  0  0  0
    1.6224   -2.2097    1.1722 C   0  0  0  0  0  0
    2.5889   -3.3491    1.4849 C   0  0  0  0  0  0
    3.9401   -3.0485    1.7534 C   0  0  0  0  0  0
    4.8602   -4.0817    2.0037 C   0  0  0  0  0  0
    4.4305   -5.4203    1.9873 C   0  0  0  0  0  0
    5.3155   -6.4166    2.2278 F   0  0  0  0  0  0
    3.0821   -5.7278    1.7237 C   0  0  0  0  0  0
    2.1447   -4.6962    1.4663 C   0  0  0  0  0  0
    0.8071   -4.9159    1.1998 O   0  0  0  0  0  0
    0.3362   -6.1793    0.7324 C   0  0  1  0  0  0
   -1.1504   -6.2063    1.1097 C   0  0  0  0  0  0
    0.5076   -6.2926   -0.7981 C   0  0  0  0  0  0
    1.8679   -6.6730   -1.1680 N   0  0  0  0  0  0
    2.5761   -6.3366   -2.2620 C   0  0  0  0  0  0
    3.5908   -6.9602   -2.5633 O   0  0  0  0  0  0
   -0.4030    1.1532    0.0979 H   0  0  0  0  0  0
   -0.4462   -0.3289    1.0354 H   0  0  0  0  0  0
   -0.5829   -0.3952   -0.7181 H   0  0  0  0  0  0
    1.8787    0.4897    0.8775 H   0  0  0  0  0  0
    1.6856    1.8065   -1.2043 H   0  0  0  0  0  0
    3.0798    0.7480   -1.2468 H   0  0  0  0  0  0
    1.3093   -1.3108   -4.6373 H   0  0  0  0  0  0
    2.0098   -5.9954   -5.2028 H   0  0  0  0  0  0
    1.5998   -1.5658    2.0520 H   0  0  0  0  0  0
    0.6047   -2.5827    1.0614 H   0  0  0  0  0  0
    4.2748   -2.0215    1.7578 H   0  0  0  0  0  0
    5.8951   -3.8471    2.2048 H   0  0  0  0  0  0
    2.7988   -6.7674    1.7289 H   0  0  0  0  0  0
    0.7984   -7.0241    1.2396 H   0  0  0  0  0  0
   -1.6187   -7.1423    0.8044 H   0  0  0  0  0  0
   -1.6941   -5.3891    0.6343 H   0  0  0  0  0  0
   -1.2803   -6.1097    2.1880 H   0  0  0  0  0  0
   -0.1386   -7.0866   -1.1735 H   0  0  0  0  0  0
    0.1647   -5.3793   -1.2811 H   0  0  0  0  0  0
    2.2705   -7.4043   -0.5998 H   0  0  0  0  0  0
  1  2  1  0  0  0
  1 30  1  0  0  0
  1 31  1  0  0  0
  1 32  1  0  0  0
  2  3  1  0  0  0
  2 14  1  0  0  0
  2 33  1  0  0  0
  3  4  1  0  0  0
  3 34  1  0  0  0
  3 35  1  0  0  0
  4  5  1  0  0  0
  5  6  2  0  0  0
  5 13  1  0  0  0
  6  7  1  0  0  0
  6 36  1  0  0  0
  7  8  1  0  0  0
  7 11  1  0  0  0
  8  9  2  0  0  0
  9 10  1  0  0  0
  9 37  1  0  0  0
 10 11  2  0  0  0
 10 28  1  0  0  0
 11 12  1  0  0  0
 12 13  2  0  0  0
 13 14  1  0  0  0
 14 15  1  0  0  0
 15 16  1  0  0  0
 15 38  1  0  0  0
 15 39  1  0  0  0
 16 17  2  0  0  0
 16 22  1  0  0  0
 17 18  1  0  0  0
 17 40  1  0  0  0
 18 19  2  0  0  0
 18 41  1  0  0  0
 19 20  1  0  0  0
 19 21  1  0  0  0
 21 22  2  0  0  0
 21 42  1  0  0  0
 22 23  1  0  0  0
 23 24  1  0  0  0
 24 25  1  0  0  0
 24 26  1  0  0  0
 24 43  1  0  0  0
 25 44  1  0  0  0
 25 45  1  0  0  0
 25 46  1  0  0  0
 26 27  1  0  0  0
 26 47  1  0  0  0
 26 48  1  0  0  0
 27 28  1  0  0  0
 27 49  1  0  0  0
 28 29  2  0  0  0
M  END
> <i_epik_Tot_Q>
0

> <i_epik_Tot_abs_Q>
0

> <i_f3d_flags>
0

> <i_lp_mmshare_version>
64135

> <i_m_source_file_index>
1

> <b_lp_Chiralities_Consistent>
1

> <r_epik_Charging_Adjusted_Penalty>
0

> <r_epik_Ionization_Penalty>
8.32874e-06

> <r_epik_Ionization_Penalty_Charging>
0

> <r_epik_Ionization_Penalty_Neutral>
8.32874e-06

> <r_epik_State_Penalty>
-0

> <r_lp_Energy>
55.864

> <r_lp_tautomer_probability>
1

> <s_epik_cmdline>
J2VwaWtfcHl0aG9uJywgJy1waCcsICc3LjAnLCAnLXRuJywgJzgnLCAnLW1hJywgJzIwMCcsICctaW1hZScsICc8aW5maWxlLm1hZT4nLCAnLW9tYWUnLCAnPG91dGZpbGUubWFlPic=

> <s_epik_input>
TzFbQ0gyXVtDQEBIXShbQ0gzXSlOKGMyYzEzKVtDSDJdYzRjKFtjSF1jKEYpW2NIXVtjSF00KU9bQ0BASF0oW0NIM10pW0NIMl1bTkhdQyg9TyljNWMobjIpbihbY0hdMyluW2NIXTU=

> <s_lp_Force_Field>
OPLS_2005

> <s_lp_Variant>
MCD00089-1

> <s_m_source_file>
MCD00089.smi

$$$$
MCD00090
                    3D
 Schrodinger Suite 2023-4.
 49 53  0  0  1  0            999 V2000
   -0.0174   -0.1059   -0.1343 C   0  0  0  0  0  0
    1.5126    0.0028   -0.1144 C   0  0  2  0  0  0
    2.0115    0.8290   -1.3180 C   0  0  0  0  0  0
    3.4241    1.1987   -1.2121 N   0  0  0  0  0  0
    4.3412    1.2584   -2.1979 C   0  0  0  0  0  0
    5.4111    1.8412   -2.0401 O   0  0  0  0  0  0
    4.0190    0.5796   -3.4849 C   0  0  0  0  0  0
    3.8827    1.1471   -4.7668 C   0  0  0  0  0  0
    3.5755    0.2055   -5.6507 N   0  0  0  0  0  0
    3.5447   -0.9748   -4.9070 N   0  0  0  0  0  0
    3.2445   -2.2099   -5.3978 C   0  0  0  0  0  0
    3.2383   -3.2800   -4.5229 C   0  0  0  0  0  0
    3.6181   -3.0339   -3.1093 C   0  0  0  0  0  0
    3.9046   -1.7888   -2.6780 N   0  0  0  0  0  0
    3.8422   -0.7948   -3.5753 C   0  0  0  0  0  0
    3.6740   -4.1339   -2.2035 N   0  0  0  0  0  0
    2.9148   -3.9133   -0.9695 C   0  0  0  0  0  0
    3.6327   -3.0450    0.0602 C   0  0  0  0  0  0
    4.8216   -3.5340    0.6407 C   0  0  0  0  0  0
    5.5464   -2.7458    1.5509 C   0  0  0  0  0  0
    5.0863   -1.4596    1.8804 C   0  0  0  0  0  0
    5.7865   -0.6944    2.7507 F   0  0  0  0  0  0
    3.8996   -0.9646    1.3076 C   0  0  0  0  0  0
    3.1524   -1.7523    0.3941 C   0  0  0  0  0  0
    1.9781   -1.3431   -0.2091 O   0  0  0  0  0  0
    3.6503   -5.4404   -2.8606 C   0  0  2  0  0  0
    5.0416   -5.8358   -3.3860 C   0  0  0  0  0  0
    2.5797   -5.4704   -3.9645 C   0  0  0  0  0  0
    2.8893   -4.5275   -4.9832 O   0  0  0  0  0  0
   -0.4846    0.8772   -0.0700 H   0  0  0  0  0  0
   -0.3766   -0.6965    0.7090 H   0  0  0  0  0  0
   -0.3686   -0.5846   -1.0491 H   0  0  0  0  0  0
    1.7652    0.4929    0.8226 H   0  0  0  0  0  0
    1.7726    0.3019   -2.2406 H   0  0  0  0  0  0
    1.4553    1.7659   -1.3626 H   0  0  0  0  0  0
    3.6970    1.6056   -0.3291 H   0  0  0  0  0  0
    3.9751    2.1809   -5.0655 H   0  0  0  0  0  0
    3.0002   -2.2898   -6.4519 H   0  0  0  0  0  0
    1.9370   -3.5011   -1.2195 H   0  0  0  0  0  0
    2.7128   -4.8748   -0.4966 H   0  0  0  0  0  0
    5.1875   -4.5152    0.3760 H   0  0  0  0  0  0
    6.4583   -3.1240    1.9888 H   0  0  0  0  0  0
    3.5985    0.0293    1.5933 H   0  0  0  0  0  0
    3.3696   -6.1825   -2.1128 H   0  0  0  0  0  0
    5.0204   -6.8288   -3.8354 H   0  0  0  0  0  0
    5.7702   -5.8582   -2.5752 H   0  0  0  0  0  0
    5.4089   -5.1395   -4.1403 H   0  0  0  0  0  0
    2.5218   -6.4628   -4.4121 H   0  0  0  0  0  0
    1.5925   -5.2519   -3.5539 H   0  0  0  0  0  0
  1  2  1  0  0  0
  1 30  1  0  0  0
  1 31  1  0  0  0
  1 32  1  0  0  0
  2  3  1  0  0  0
  2 25  1  0  0  0
  2 33  1  0  0  0
  3  4  1  0  0  0
  3 34  1  0  0  0
  3 35  1  0  0  0
  4  5  1  0  0  0
  4 36  1  0  0  0
  5  6  2  0  0  0
  5  7  1  0  0  0
  7  8  1  0  0  0
  7 15  2  0  0  0
  8  9  2  0  0  0
  8 37  1  0  0  0
  9 10  1  0  0  0
 10 11  1  0  0  0
 10 15  1  0  0  0
 11 12  2  0  0  0
 11 38  1  0  0  0
 12 13  1  0  0  0
 12 29  1  0  0  0
 13 14  2  0  0  0
 13 16  1  0  0  0
 14 15  1  0  0  0
 16 17  1  0  0  0
 16 26  1  0  0  0
 17 18  1  0  0  0
 17 39  1  0  0  0
 17 40  1  0  0  0
 18 19  2  0  0  0
 18 24  1  0  0  0
 19 20  1  0  0  0
 19 41  1  0  0  0
 20 21  2  0  0  0
 20 42  1  0  0  0
 21 22  1  0  0  0
 21 23  1  0  0  0
 23 24  2  0  0  0
 23 43  1  0  0  0
 24 25  1  0  0  0
 26 27  1  0  0  0
 26 28  1  0  0  0
 26 44  1  0  0  0
 27 45  1  0  0  0
 27 46  1  0  0  0
 27 47  1  0  0  0
 28 29  1  0  0  0
 28 48  1  0  0  0
 28 49  1  0  0  0
M  END
> <i_epik_Tot_Q>
0

> <i_epik_Tot_abs_Q>
0

> <i_f3d_flags>
0

> <i_lp_mmshare_version>
64135

> <i_m_source_file_index>
1

> <b_lp_Chiralities_Consistent>
1

> <r_epik_Charging_Adjusted_Penalty>
0

> <r_epik_Ionization_Penalty>
8.32874e-06

> <r_epik_Ionization_Penalty_Charging>
0

> <r_epik_Ionization_Penalty_Neutral>
8.32874e-06

> <r_epik_State_Penalty>
-0

> <r_lp_Energy>
57.7326

> <r_lp_tautomer_probability>
1

> <s_epik_cmdline>
J2VwaWtfcHl0aG9uJywgJy1waCcsICc3LjAnLCAnLXRuJywgJzgnLCAnLW1hJywgJzIwMCcsICctaW1hZScsICc8aW5maWxlLm1hZT4nLCAnLW9tYWUnLCAnPG91dGZpbGUubWFlPic=

> <s_epik_input>
Tz1DMVtOSF1bQ0gyXVtDQEBIXShbQ0gzXSlPYyhbY0hdYyhGKVtjSF1bY0hdMiljMltDSDJdTihbQ0BIXShbQ0gzXSlbQ0gyXU8zKWMobjQpYzNbY0hdbihjNGMxNSluW2NIXTU=

> <s_lp_Force_Field>
OPLS_2005

> <s_lp_Variant>
MCD00090-1

> <s_m_source_file>
MCD00090.smi

$$$$
MCD00091
                    3D
 Schrodinger Suite 2023-4.
 49 53  0  0  1  0            999 V2000
   -0.0763    0.1207   -0.2312 C   0  0  0  0  0  0
    1.4552    0.0320   -0.0539 C   0  0  0  0  0  0
    2.1130    0.6522   -1.3014 C   0  0  0  0  0  0
    1.8907    0.8564    1.1818 C   0  0  0  0  0  0
    3.2848    0.6941    1.4625 O   0  0  0  0  0  0
    3.9188    1.7219    2.1279 C   0  0  0  0  0  0
    3.7629    3.0700    1.7195 C   0  0  0  0  0  0
    4.4349    4.1102    2.3867 C   0  0  0  0  0  0
    4.2687    5.3921    1.9838 F   0  0  0  0  0  0
    5.2874    3.8173    3.4638 C   0  0  0  0  0  0
    5.4732    2.4822    3.8620 C   0  0  0  0  0  0
    4.7984    1.4301    3.2045 C   0  0  0  0  0  0
    5.0638    0.0033    3.6778 C   0  0  0  0  0  0
    4.2802   -0.4433    4.8382 N   0  0  0  0  0  0
    4.3557    0.3058    6.0885 C   0  0  0  0  0  0
    3.5916   -0.4024    7.2124 C   0  0  0  0  0  0
    2.2105   -0.4698    6.8908 O   0  0  0  0  0  0
    1.9425   -0.9122    5.6175 C   0  0  0  0  0  0
    0.6616   -1.3271    5.3044 C   0  0  0  0  0  0
    0.4135   -1.7584    4.0369 N   0  0  0  0  0  0
   -0.8228   -2.1913    3.5557 N   0  0  0  0  0  0
   -0.5946   -2.4968    2.2844 C   0  0  0  0  0  0
    0.7518   -2.2386    1.9612 C   0  0  0  0  0  0
    1.4163   -1.7999    3.0957 C   0  0  0  0  0  0
    2.6856   -1.4370    3.3288 N   0  0  0  0  0  0
    2.9758   -0.9436    4.5498 C   0  0  0  0  0  0
    1.4585   -2.4512    0.6709 C   0  0  0  0  0  0
    1.6955   -3.5896    0.2744 O   0  0  0  0  0  0
    1.8924   -1.3762   -0.0212 N   0  0  0  0  0  0
   -0.3913    1.1480   -0.4174 H   0  0  0  0  0  0
   -0.6133   -0.2158    0.6545 H   0  0  0  0  0  0
   -0.4163   -0.4819   -1.0742 H   0  0  0  0  0  0
    1.8372    1.7009   -1.4188 H   0  0  0  0  0  0
    1.8123    0.1323   -2.2120 H   0  0  0  0  0  0
    3.2013    0.6067   -1.2430 H   0  0  0  0  0  0
    1.6053    1.8918    1.0074 H   0  0  0  0  0  0
    1.3180    0.5761    2.0625 H   0  0  0  0  0  0
    3.1451    3.3272    0.8730 H   0  0  0  0  0  0
    5.8084    4.6131    3.9754 H   0  0  0  0  0  0
    6.1431    2.2644    4.6808 H   0  0  0  0  0  0
    4.9805   -0.6861    2.8377 H   0  0  0  0  0  0
    6.1137   -0.0546    3.9664 H   0  0  0  0  0  0
    5.4034    0.4198    6.3679 H   0  0  0  0  0  0
    3.9513    1.3078    5.9414 H   0  0  0  0  0  0
    3.9841   -1.4064    7.3808 H   0  0  0  0  0  0
    3.7050    0.1464    8.1476 H   0  0  0  0  0  0
   -0.1638   -1.3261    6.0089 H   0  0  0  0  0  0
   -1.3850   -2.8722    1.6512 H   0  0  0  0  0  0
    2.4875   -1.6165   -0.8009 H   0  0  0  0  0  0
  1  2  1  0  0  0
  1 30  1  0  0  0
  1 31  1  0  0  0
  1 32  1  0  0  0
  2  3  1  0  0  0
  2  4  1  0  0  0
  2 29  1  0  0  0
  3 33  1  0  0  0
  3 34  1  0  0  0
  3 35  1  0  0  0
  4  5  1  0  0  0
  4 36  1  0  0  0
  4 37  1  0  0  0
  5  6  1  0  0  0
  6  7  2  0  0  0
  6 12  1  0  0  0
  7  8  1  0  0  0
  7 38  1  0  0  0
  8  9  1  0  0  0
  8 10  2  0  0  0
 10 11  1  0  0  0
 10 39  1  0  0  0
 11 12  2  0  0  0
 11 40  1  0  0  0
 12 13  1  0  0  0
 13 14  1  0  0  0
 13 41  1  0  0  0
 13 42  1  0  0  0
 14 15  1  0  0  0
 14 26  1  0  0  0
 15 16  1  0  0  0
 15 43  1  0  0  0
 15 44  1  0  0  0
 16 17  1  0  0  0
 16 45  1  0  0  0
 16 46  1  0  0  0
 17 18  1  0  0  0
 18 19  2  0  0  0
 18 26  1  0  0  0
 19 20  1  0  0  0
 19 47  1  0  0  0
 20 21  1  0  0  0
 20 24  1  0  0  0
 21 22  2  0  0  0
 22 23  1  0  0  0
 22 48  1  0  0  0
 23 24  2  0  0  0
 23 27  1  0  0  0
 24 25  1  0  0  0
 25 26  2  0  0  0
 27 28  2  0  0  0
 27 29  1  0  0  0
 29 49  1  0  0  0
M  END
> <i_epik_Tot_Q>
0

> <i_epik_Tot_abs_Q>
0

> <i_f3d_flags>
0

> <i_lp_mmshare_version>
64135

> <i_m_source_file_index>
1

> <b_lp_Chiralities_Consistent>
1

> <r_epik_Charging_Adjusted_Penalty>
0

> <r_epik_Ionization_Penalty>
5.46887e-06

> <r_epik_Ionization_Penalty_Charging>
0

> <r_epik_Ionization_Penalty_Neutral>
5.46887e-06

> <r_epik_State_Penalty>
-0

> <r_lp_Energy>
60.8339

> <r_lp_tautomer_probability>
1

> <s_epik_cmdline>
J2VwaWtfcHl0aG9uJywgJy1waCcsICc3LjAnLCAnLXRuJywgJzgnLCAnLW1hJywgJzIwMCcsICctaW1hZScsICc8aW5maWxlLm1hZT4nLCAnLW9tYWUnLCAnPG91dGZpbGUubWFlPic=

> <s_epik_input>
TzFbQ0gyXUMoW0NIM10pKFtDSDNdKVtOSF1DKD1PKWMoW2NIXW4yKWMobjMpbjJbY0hdYyhPW0NIMl1bQ0gyXTQpYzNONFtDSDJdYyhjMTUpW2NIXVtjSF1jKEYpW2NIXTU=

> <s_lp_Force_Field>
OPLS_2005

> <s_lp_Variant>
MCD00091-1

> <s_m_source_file>
MCD00091.smi

$$$$
MCD00092
                    3D
 Schrodinger Suite 2023-4.
 52 56  0  0  1  0            999 V2000
   -0.2003    0.1831   -1.1558 C   0  0  0  0  0  0
    1.0263    0.1820   -0.3394 N   0  0  0  0  0  0
    1.6661   -1.1140   -0.0252 C   0  0  0  0  0  0
    0.9355   -2.3563   -0.4746 C   0  0  0  0  0  0
    0.0192   -2.8768    0.3317 N   0  0  0  0  0  0
   -0.4458   -3.9684   -0.3130 N   0  0  0  0  0  0
   -1.4764   -4.7741    0.3056 C   0  0  0  0  0  0
    0.1735   -4.1516   -1.5295 C   0  0  0  0  0  0
    1.0666   -3.1276   -1.6711 C   0  0  0  0  0  0
    1.9559   -2.9081   -2.8317 C   0  0  0  0  0  0
    2.3806   -4.0116   -3.6080 C   0  0  0  0  0  0
    3.1565   -3.9140   -4.7046 N   0  0  0  0  0  0
    3.5219   -2.6713   -5.0418 C   0  0  0  0  0  0
    4.2761   -2.3296   -6.1176 N   0  0  0  0  0  0
    4.4457   -0.9628   -6.1701 C   0  0  0  0  0  0
    3.7944   -0.4185   -5.0884 C   0  0  0  0  0  0
    3.1962   -1.5024   -4.3763 C   0  0  0  0  0  0
    2.3829   -1.6125   -3.2251 C   0  0  0  0  0  0
    3.7373    1.0054   -4.7641 C   0  0  0  0  0  0
    3.8139    2.0812   -5.6882 C   0  0  0  0  0  0
    3.7468    3.2523   -5.0752 N   0  0  0  0  0  0
    3.6307    2.9581   -3.7576 N   0  0  0  0  0  0
    3.6339    1.5906   -3.5366 C   0  0  0  0  0  0
    3.5976    4.0567   -2.8006 C   0  0  0  0  0  0
    3.0031    3.6854   -1.4299 C   0  0  0  0  0  0
    1.5139    3.2843   -1.4778 C   0  0  0  0  0  0
    0.9768    2.6908   -0.1592 C   0  0  0  0  0  0
    1.5880    1.3142    0.1553 C   0  0  0  0  0  0
    2.5968    1.2905    0.8627 O   0  0  0  0  0  0
   -0.3439    1.0962   -1.7301 H   0  0  0  0  0  0
   -1.0720    0.0485   -0.5150 H   0  0  0  0  0  0
   -0.2091   -0.6084   -1.9031 H   0  0  0  0  0  0
    2.6732   -1.1167   -0.4443 H   0  0  0  0  0  0
    1.8099   -1.1750    1.0556 H   0  0  0  0  0  0
   -1.7716   -5.5825   -0.3639 H   0  0  0  0  0  0
   -2.3489   -4.1564    0.5207 H   0  0  0  0  0  0
   -1.1015   -5.2023    1.2356 H   0  0  0  0  0  0
   -0.0755   -4.9765   -2.1810 H   0  0  0  0  0  0
    2.0821   -5.0158   -3.3453 H   0  0  0  0  0  0
    4.6555   -2.9794   -6.7909 H   0  0  0  0  0  0
    5.0170   -0.4940   -6.9581 H   0  0  0  0  0  0
    2.0807   -0.7260   -2.6928 H   0  0  0  0  0  0
    3.9130    2.0515   -6.7633 H   0  0  0  0  0  0
    3.5735    1.1576   -2.5492 H   0  0  0  0  0  0
    4.6198    4.4138   -2.6707 H   0  0  0  0  0  0
    3.0307    4.8818   -3.2348 H   0  0  0  0  0  0
    3.6078    2.8891   -0.9979 H   0  0  0  0  0  0
    3.1151    4.5329   -0.7531 H   0  0  0  0  0  0
    0.9232    4.1631   -1.7374 H   0  0  0  0  0  0
    1.3435    2.5727   -2.2850 H   0  0  0  0  0  0
    1.2124    3.3700    0.6614 H   0  0  0  0  0  0
   -0.1115    2.6373   -0.1715 H   0  0  0  0  0  0
  1  2  1  0  0  0
  1 30  1  0  0  0
  1 31  1  0  0  0
  1 32  1  0  0  0
  2  3  1  0  0  0
  2 28  1  0  0  0
  3  4  1  0  0  0
  3 33  1  0  0  0
  3 34  1  0  0  0
  4  5  2  0  0  0
  4  9  1  0  0  0
  5  6  1  0  0  0
  6  7  1  0  0  0
  6  8  1  0  0  0
  7 35  1  0  0  0
  7 36  1  0  0  0
  7 37  1  0  0  0
  8  9  2  0  0  0
  8 38  1  0  0  0
  9 10  1  0  0  0
 10 11  2  0  0  0
 10 18  1  0  0  0
 11 12  1  0  0  0
 11 39  1  0  0  0
 12 13  2  0  0  0
 13 14  1  0  0  0
 13 17  1  0  0  0
 14 15  1  0  0  0
 14 40  1  0  0  0
 15 16  2  0  0  0
 15 41  1  0  0  0
 16 17  1  0  0  0
 16 19  1  0  0  0
 17 18  2  0  0  0
 18 42  1  0  0  0
 19 20  1  0  0  0
 19 23  2  0  0  0
 20 21  2  0  0  0
 20 43  1  0  0  0
 21 22  1  0  0  0
 22 23  1  0  0  0
 22 24  1  0  0  0
 23 44  1  0  0  0
 24 25  1  0  0  0
 24 45  1  0  0  0
 24 46  1  0  0  0
 25 26  1  0  0  0
 25 47  1  0  0  0
 25 48  1  0  0  0
 26 27  1  0  0  0
 26 49  1  0  0  0
 26 50  1  0  0  0
 27 28  1  0  0  0
 27 51  1  0  0  0
 27 52  1  0  0  0
 28 29  2  0  0  0
M  END
> <i_epik_Tot_Q>
0

> <i_epik_Tot_abs_Q>
0

> <i_f3d_flags>
0

> <i_lp_mmshare_version>
64135

> <i_m_source_file_index>
1

> <b_lp_Chiralities_Consistent>
1

> <r_epik_Charging_Adjusted_Penalty>
0.00130885

> <r_epik_Ionization_Penalty>
0.00145981

> <r_epik_Ionization_Penalty_Charging>
0

> <r_epik_Ionization_Penalty_Neutral>
0.00145981

> <r_epik_State_Penalty>
0.00130885

> <r_lp_Energy>
24.1683

> <r_lp_tautomer_probability>
0.999998

> <s_epik_cmdline>
J2VwaWtfcHl0aG9uJywgJy1waCcsICc3LjAnLCAnLXRuJywgJzgnLCAnLW1hJywgJzIwMCcsICctaW1hZScsICc8aW5maWxlLm1hZT4nLCAnLW9tYWUnLCAnPG91dGZpbGUubWFlPic=

> <s_epik_input>
W0NIM11OKFtDSDJdMSlDKD1PKVtDSDJdW0NIMl1bQ0gyXVtDSDJdbihbY0hdMiluW2NIXWMyYyhbY0hdW25IXTMpYyhbY0hdNCljM25bY0hdYzRjKGMxNSlbY0hdbihuNSlbQ0gzXQ==

> <s_lp_Force_Field>
OPLS_2005

> <s_lp_Variant>
MCD00092-1

> <s_m_source_file>
MCD00092.smi

$$$$
MCD00093
                    3D
 Schrodinger Suite 2023-4.
 45 47  0  0  1  0            999 V2000
    0.1023    0.1014   -0.3827 N   0  0  0  0  0  0
    1.4744    0.0139   -0.1397 C   0  0  0  0  0  0
    2.2302    1.2038   -0.0556 C   0  0  0  0  0  0
    3.6235    1.1419    0.1773 C   0  0  0  0  0  0
    4.4640    2.4122    0.2472 C   0  0  0  0  0  0
    5.0754    2.4922    1.4289 F   0  0  0  0  0  0
    5.3815    2.4054   -0.7197 F   0  0  0  0  0  0
    3.7141    3.5045    0.0970 F   0  0  0  0  0  0
    4.1919   -0.1434    0.3357 C   0  0  0  0  0  0
    3.4725   -1.2764    0.2908 N   0  0  0  0  0  0
    2.1508   -1.2228    0.0291 C   0  0  0  0  0  0
    1.5159   -2.5408   -0.0701 C   0  0  0  0  0  0
    0.3557   -2.9042   -0.6268 N   0  0  0  0  0  0
    0.3256   -4.2814   -0.5815 N   0  0  0  0  0  0
    1.4290   -4.6539    0.0738 C   0  0  0  0  0  0
    2.2087   -3.6019    0.4242 O   0  0  0  0  0  0
    1.9917   -6.0389    0.2475 C   0  0  1  0  0  0
    2.7495   -6.1195    1.4424 O   0  0  0  0  0  0
    0.8680   -7.0953    0.4237 C   0  0  0  0  0  0
    0.1347   -7.1958   -0.6861 F   0  0  0  0  0  0
    1.3906   -8.2981    0.6719 F   0  0  0  0  0  0
    0.0576   -6.7611    1.4300 F   0  0  0  0  0  0
    2.9474   -6.4220   -0.9201 C   0  0  0  0  0  0
    4.0441   -5.4047   -1.3311 C   0  0  0  0  0  0
    5.1833   -5.2206   -0.3066 C   0  0  0  0  0  0
    6.3582   -4.3642   -0.8224 C   0  0  0  0  0  0
    6.1125   -2.8424   -0.8122 C   0  0  0  0  0  0
    6.2269   -2.2096    0.5897 C   0  0  0  0  0  0
    5.9271   -0.4090    0.5879 S   0  0  0  0  0  0
   -0.4498   -0.7283   -0.5509 H   0  0  0  0  0  0
   -0.3354    0.9865   -0.5951 H   0  0  0  0  0  0
    1.7368    2.1562   -0.1826 H   0  0  0  0  0  0
    3.0587   -7.0069    1.5400 H   0  0  0  0  0  0
    3.4112   -7.3884   -0.7179 H   0  0  0  0  0  0
    2.3335   -6.5819   -1.8070 H   0  0  0  0  0  0
    4.4860   -5.7652   -2.2607 H   0  0  0  0  0  0
    3.6023   -4.4423   -1.5862 H   0  0  0  0  0  0
    4.8025   -4.7947    0.6202 H   0  0  0  0  0  0
    5.5698   -6.2066   -0.0470 H   0  0  0  0  0  0
    7.2455   -4.5779   -0.2253 H   0  0  0  0  0  0
    6.6079   -4.6809   -1.8355 H   0  0  0  0  0  0
    6.8530   -2.3687   -1.4574 H   0  0  0  0  0  0
    5.1464   -2.6243   -1.2654 H   0  0  0  0  0  0
    5.5412   -2.6818    1.2928 H   0  0  0  0  0  0
    7.2304   -2.3769    0.9815 H   0  0  0  0  0  0
  1  2  1  0  0  0
  1 30  1  0  0  0
  1 31  1  0  0  0
  2  3  2  0  0  0
  2 11  1  0  0  0
  3  4  1  0  0  0
  3 32  1  0  0  0
  4  5  1  0  0  0
  4  9  2  0  0  0
  5  6  1  0  0  0
  5  7  1  0  0  0
  5  8  1  0  0  0
  9 10  1  0  0  0
  9 29  1  0  0  0
 10 11  2  0  0  0
 11 12  1  0  0  0
 12 13  2  0  0  0
 12 16  1  0  0  0
 13 14  1  0  0  0
 14 15  2  0  0  0
 15 16  1  0  0  0
 15 17  1  0  0  0
 17 18  1  0  0  0
 17 19  1  0  0  0
 17 23  1  0  0  0
 18 33  1  0  0  0
 19 20  1  0  0  0
 19 21  1  0  0  0
 19 22  1  0  0  0
 23 24  1  0  0  0
 23 34  1  0  0  0
 23 35  1  0  0  0
 24 25  1  0  0  0
 24 36  1  0  0  0
 24 37  1  0  0  0
 25 26  1  0  0  0
 25 38  1  0  0  0
 25 39  1  0  0  0
 26 27  1  0  0  0
 26 40  1  0  0  0
 26 41  1  0  0  0
 27 28  1  0  0  0
 27 42  1  0  0  0
 27 43  1  0  0  0
 28 29  1  0  0  0
 28 44  1  0  0  0
 28 45  1  0  0  0
M  END
> <i_epik_Tot_Q>
0

> <i_epik_Tot_abs_Q>
0

> <i_f3d_flags>
0

> <i_lp_mmshare_version>
64135

> <i_m_source_file_index>
1

> <b_lp_Chiralities_Consistent>
1

> <r_epik_Charging_Adjusted_Penalty>
0

> <r_epik_Ionization_Penalty>
6.30794e-05

> <r_epik_Ionization_Penalty_Charging>
0

> <r_epik_Ionization_Penalty_Neutral>
6.30794e-05

> <r_epik_State_Penalty>
-0

> <r_lp_Energy>
26.6998

> <r_lp_tautomer_probability>
1

> <s_epik_cmdline>
J2VwaWtfcHl0aG9uJywgJy1waCcsICc3LjAnLCAnLXRuJywgJzgnLCAnLW1hJywgJzIwMCcsICctaW1hZScsICc8aW5maWxlLm1hZT4nLCAnLW9tYWUnLCAnPG91dGZpbGUubWFlPic=

> <s_epik_input>
RkMoRikoRiljKGMxMilbY0hdYyhbTkgyXSljKG4xKWMzbm5jKG8zKVtDQEBdKFtPSF0pKEMoRikoRilGKVtDSDJdW0NIMl1bQ0gyXVtDSDJdW0NIMl1bQ0gyXVMy

> <s_lp_Force_Field>
OPLS_2005

> <s_lp_Variant>
MCD00093-1

> <s_m_source_file>
MCD00093.smi

$$$$
MCD00094
                    3D
 Schrodinger Suite 2023-4.
 45 47  0  0  1  0            999 V2000
    0.0319    0.0840   -0.0212 N   0  0  0  0  0  0
    1.4254    0.0116    0.0222 C   0  0  0  0  0  0
    2.1836    1.2005   -0.0473 C   0  0  0  0  0  0
    3.5950    1.1399    0.0249 C   0  0  0  0  0  0
    4.4445    2.4026   -0.0034 C   0  0  0  0  0  0
    5.1407    2.5008    1.1291 F   0  0  0  0  0  0
    5.2934    2.3501   -1.0296 F   0  0  0  0  0  0
    3.6967    3.4991   -0.1333 F   0  0  0  0  0  0
    4.2000   -0.1322    0.1342 C   0  0  0  0  0  0
    3.4726   -1.2681    0.1457 N   0  0  0  0  0  0
    2.1249   -1.2151    0.1381 C   0  0  0  0  0  0
    1.4938   -2.5256    0.3014 C   0  0  0  0  0  0
    0.3238   -2.8627    0.8542 N   0  0  0  0  0  0
    0.3705   -4.2327    1.0274 N   0  0  0  0  0  0
    1.5539   -4.6220    0.5419 C   0  0  0  0  0  0
    2.2357   -3.6092   -0.0433 O   0  0  0  0  0  0
    2.1742   -5.9948    0.5490 C   0  0  1  0  0  0
    1.8551   -6.6832    1.7448 O   0  0  0  0  0  0
    1.6220   -6.8438   -0.6232 C   0  0  0  0  0  0
    1.9277   -6.2709   -1.7883 F   0  0  0  0  0  0
    2.1525   -8.0681   -0.6116 F   0  0  0  0  0  0
    0.2942   -6.9485   -0.5497 F   0  0  0  0  0  0
    3.7319   -5.9292    0.4971 C   0  0  0  0  0  0
    4.4411   -5.0374    1.5494 C   0  0  0  0  0  0
    5.8834   -4.6832    1.1314 C   0  0  0  0  0  0
    6.5585   -3.5784    1.9738 C   0  0  0  0  0  0
    5.9808   -2.1548    1.8047 C   0  0  0  0  0  0
    6.1628   -1.5472    0.3924 C   0  0  0  0  0  0
    5.5736   -0.2455    0.2660 O   0  0  0  0  0  0
   -0.5351   -0.7355    0.1472 H   0  0  0  0  0  0
   -0.4435    0.9748    0.0112 H   0  0  0  0  0  0
    1.6781    2.1512   -0.1334 H   0  0  0  0  0  0
    2.2257   -7.5510    1.6972 H   0  0  0  0  0  0
    4.1521   -6.9344    0.5482 H   0  0  0  0  0  0
    4.0071   -5.5593   -0.4914 H   0  0  0  0  0  0
    3.8906   -4.1148    1.7103 H   0  0  0  0  0  0
    4.4467   -5.5407    2.5166 H   0  0  0  0  0  0
    6.4884   -5.5886    1.1910 H   0  0  0  0  0  0
    5.9053   -4.3927    0.0819 H   0  0  0  0  0  0
    6.5085   -3.8598    3.0262 H   0  0  0  0  0  0
    7.6203   -3.5506    1.7262 H   0  0  0  0  0  0
    4.9330   -2.1567    2.0977 H   0  0  0  0  0  0
    6.4726   -1.4962    2.5212 H   0  0  0  0  0  0
    7.2289   -1.4397    0.1919 H   0  0  0  0  0  0
    5.7872   -2.2075   -0.3894 H   0  0  0  0  0  0
  1  2  1  0  0  0
  1 30  1  0  0  0
  1 31  1  0  0  0
  2  3  2  0  0  0
  2 11  1  0  0  0
  3  4  1  0  0  0
  3 32  1  0  0  0
  4  5  1  0  0  0
  4  9  2  0  0  0
  5  6  1  0  0  0
  5  7  1  0  0  0
  5  8  1  0  0  0
  9 10  1  0  0  0
  9 29  1  0  0  0
 10 11  2  0  0  0
 11 12  1  0  0  0
 12 13  2  0  0  0
 12 16  1  0  0  0
 13 14  1  0  0  0
 14 15  2  0  0  0
 15 16  1  0  0  0
 15 17  1  0  0  0
 17 18  1  0  0  0
 17 19  1  0  0  0
 17 23  1  0  0  0
 18 33  1  0  0  0
 19 20  1  0  0  0
 19 21  1  0  0  0
 19 22  1  0  0  0
 23 24  1  0  0  0
 23 34  1  0  0  0
 23 35  1  0  0  0
 24 25  1  0  0  0
 24 36  1  0  0  0
 24 37  1  0  0  0
 25 26  1  0  0  0
 25 38  1  0  0  0
 25 39  1  0  0  0
 26 27  1  0  0  0
 26 40  1  0  0  0
 26 41  1  0  0  0
 27 28  1  0  0  0
 27 42  1  0  0  0
 27 43  1  0  0  0
 28 29  1  0  0  0
 28 44  1  0  0  0
 28 45  1  0  0  0
M  END
> <i_epik_Tot_Q>
0

> <i_epik_Tot_abs_Q>
0

> <i_f3d_flags>
0

> <i_lp_mmshare_version>
64135

> <i_m_source_file_index>
1

> <b_lp_Chiralities_Consistent>
1

> <r_epik_Charging_Adjusted_Penalty>
0

> <r_epik_Ionization_Penalty>
3.53241e-05

> <r_epik_Ionization_Penalty_Charging>
0

> <r_epik_Ionization_Penalty_Neutral>
3.53241e-05

> <r_epik_State_Penalty>
-0

> <r_lp_Energy>
33.5103

> <r_lp_tautomer_probability>
1

> <s_epik_cmdline>
J2VwaWtfcHl0aG9uJywgJy1waCcsICc3LjAnLCAnLXRuJywgJzgnLCAnLW1hJywgJzIwMCcsICctaW1hZScsICc8aW5maWxlLm1hZT4nLCAnLW9tYWUnLCAnPG91dGZpbGUubWFlPic=

> <s_epik_input>
RkMoRikoRiljKGMxMilbY0hdYyhbTkgyXSljKG4xKWMzbm5jKG8zKVtDQEBdKFtPSF0pKEMoRikoRilGKVtDSDJdW0NIMl1bQ0gyXVtDSDJdW0NIMl1bQ0gyXU8y

> <s_lp_Force_Field>
OPLS_2005

> <s_lp_Variant>
MCD00094-1

> <s_m_source_file>
MCD00094.smi

$$$$
MCD00094
                    3D
 Schrodinger Suite 2023-4.
 45 47  0  0  1  0            999 V2000
    0.0403    0.1171   -0.0194 N   0  0  0  0  0  0
    1.4336    0.0335    0.0122 C   0  0  0  0  0  0
    2.2008    1.2191   -0.0330 C   0  0  0  0  0  0
    3.6132    1.1486    0.0249 C   0  0  0  0  0  0
    4.4719    2.4048    0.0183 C   0  0  0  0  0  0
    5.3434    2.3509   -0.9888 F   0  0  0  0  0  0
    3.7349    3.5069   -0.1244 F   0  0  0  0  0  0
    5.1430    2.4929    1.1663 F   0  0  0  0  0  0
    4.2088   -0.1297    0.1025 C   0  0  0  0  0  0
    3.4713   -1.2559    0.0945 N   0  0  0  0  0  0
    2.1264   -1.2001    0.0920 C   0  0  0  0  0  0
    1.5044   -2.5202    0.2122 C   0  0  0  0  0  0
    0.2878   -2.8807    0.6328 N   0  0  0  0  0  0
    0.3344   -4.2528    0.7866 N   0  0  0  0  0  0
    1.5451   -4.6318    0.3635 C   0  0  0  0  0  0
    2.3038   -3.5890   -0.0419 O   0  0  0  0  0  0
    2.2300   -5.9631    0.5127 C   0  0  2  0  0  0
    3.1481   -6.1678   -0.5479 O   0  0  0  0  0  0
    1.2254   -7.1408    0.4007 C   0  0  0  0  0  0
    0.3590   -7.1196    1.4146 F   0  0  0  0  0  0
    0.5358   -7.0678   -0.7391 F   0  0  0  0  0  0
    1.8674   -8.3100    0.4427 F   0  0  0  0  0  0
    3.0555   -6.0440    1.8320 C   0  0  0  0  0  0
    3.9982   -4.8628    2.1941 C   0  0  0  0  0  0
    5.2245   -4.6796    1.2719 C   0  0  0  0  0  0
    6.2945   -3.7070    1.8201 C   0  0  0  0  0  0
    5.9343   -2.2092    1.7391 C   0  0  0  0  0  0
    6.1312   -1.5938    0.3327 C   0  0  0  0  0  0
    5.5807   -0.2720    0.2222 O   0  0  0  0  0  0
   -0.5362   -0.7053    0.0934 H   0  0  0  0  0  0
   -0.4327    1.0094   -0.0008 H   0  0  0  0  0  0
    1.7018    2.1754   -0.0916 H   0  0  0  0  0  0
    3.5339   -7.0243   -0.4466 H   0  0  0  0  0  0
    2.3462   -6.1269    2.6560 H   0  0  0  0  0  0
    3.6244   -6.9743    1.8535 H   0  0  0  0  0  0
    3.4366   -3.9320    2.2663 H   0  0  0  0  0  0
    4.3651   -5.0468    3.2042 H   0  0  0  0  0  0
    5.6950   -5.6540    1.1363 H   0  0  0  0  0  0
    4.9110   -4.3588    0.2794 H   0  0  0  0  0  0
    6.5029   -3.9669    2.8584 H   0  0  0  0  0  0
    7.2323   -3.8689    1.2875 H   0  0  0  0  0  0
    4.9168   -2.0680    2.1002 H   0  0  0  0  0  0
    6.5636   -1.6561    2.4369 H   0  0  0  0  0  0
    7.1995   -1.5210    0.1287 H   0  0  0  0  0  0
    5.7380   -2.2439   -0.4503 H   0  0  0  0  0  0
  1  2  1  0  0  0
  1 30  1  0  0  0
  1 31  1  0  0  0
  2  3  2  0  0  0
  2 11  1  0  0  0
  3  4  1  0  0  0
  3 32  1  0  0  0
  4  5  1  0  0  0
  4  9  2  0  0  0
  5  6  1  0  0  0
  5  7  1  0  0  0
  5  8  1  0  0  0
  9 10  1  0  0  0
  9 29  1  0  0  0
 10 11  2  0  0  0
 11 12  1  0  0  0
 12 13  2  0  0  0
 12 16  1  0  0  0
 13 14  1  0  0  0
 14 15  2  0  0  0
 15 16  1  0  0  0
 15 17  1  0  0  0
 17 18  1  0  0  0
 17 19  1  0  0  0
 17 23  1  0  0  0
 18 33  1  0  0  0
 19 20  1  0  0  0
 19 21  1  0  0  0
 19 22  1  0  0  0
 23 24  1  0  0  0
 23 34  1  0  0  0
 23 35  1  0  0  0
 24 25  1  0  0  0
 24 36  1  0  0  0
 24 37  1  0  0  0
 25 26  1  0  0  0
 25 38  1  0  0  0
 25 39  1  0  0  0
 26 27  1  0  0  0
 26 40  1  0  0  0
 26 41  1  0  0  0
 27 28  1  0  0  0
 27 42  1  0  0  0
 27 43  1  0  0  0
 28 29  1  0  0  0
 28 44  1  0  0  0
 28 45  1  0  0  0
M  END
> <i_epik_Tot_Q>
0

> <i_epik_Tot_abs_Q>
0

> <i_f3d_flags>
0

> <i_lp_mmshare_version>
64135

> <i_m_source_file_index>
1

> <b_lp_Chiralities_Consistent>
1

> <r_epik_Charging_Adjusted_Penalty>
0

> <r_epik_Ionization_Penalty>
3.53241e-05

> <r_epik_Ionization_Penalty_Charging>
0

> <r_epik_Ionization_Penalty_Neutral>
3.53241e-05

> <r_epik_State_Penalty>
-0

> <r_lp_Energy>
31.012

> <r_lp_tautomer_probability>
1

> <s_epik_cmdline>
J2VwaWtfcHl0aG9uJywgJy1waCcsICc3LjAnLCAnLXRuJywgJzgnLCAnLW1hJywgJzIwMCcsICctaW1hZScsICc8aW5maWxlLm1hZT4nLCAnLW9tYWUnLCAnPG91dGZpbGUubWFlPic=

> <s_epik_input>
RkMoRikoRiljKGMxMilbY0hdYyhbTkgyXSljKG4xKWMzbm5jKG8zKVtDQEBdKFtPSF0pKEMoRikoRilGKVtDSDJdW0NIMl1bQ0gyXVtDSDJdW0NIMl1bQ0gyXU8y

> <s_lp_Force_Field>
OPLS_2005

> <s_lp_Variant>
MCD00094-2

> <s_m_source_file>
MCD00094.smi

$$$$
MCD00095
                    3D
 Schrodinger Suite 2023-4.
 46 48  0  0  1  0            999 V2000
   -0.8778    3.4725    0.8994 O   0  0  0  0  0  0
   -0.5005    2.3101    1.0297 C   0  0  0  0  0  0
   -0.4072    1.4634   -0.0111 N   0  0  0  0  0  0
    0.0140    0.0588    0.0135 C   0  0  2  0  0  0
    1.5473   -0.0411   -0.0066 C   0  0  0  0  0  0
    2.0780   -0.7342    0.8884 O   0  0  0  0  0  0
    2.1627    0.5821   -0.9005 O   0  5  0  0  0  0
   -0.5397   -0.6435   -1.2433 C   0  0  0  0  0  0
   -2.0565   -0.6504   -1.3415 C   0  0  0  0  0  0
   -2.6921   -0.0218   -2.4313 C   0  0  0  0  0  0
   -4.0948   -0.0229   -2.5241 C   0  0  0  0  0  0
   -4.8640   -0.6520   -1.5283 C   0  0  0  0  0  0
   -4.2473   -1.2819   -0.4280 C   0  0  0  0  0  0
   -2.8326   -1.2767   -0.3418 C   0  0  0  0  0  0
   -5.0870   -1.8745    0.4906 O   0  0  0  0  0  0
   -4.5520   -2.4328    1.6851 C   0  0  0  0  0  0
   -4.2474   -1.3692    2.7219 C   0  0  0  0  0  0
   -3.2488   -1.4367    3.6168 C   0  0  0  0  0  0
   -3.0200   -0.4058    4.7058 C   0  0  0  0  0  0
   -1.6550   -0.3126    5.0963 O   0  0  0  0  0  0
   -0.7807    0.4436    4.3458 C   0  0  0  0  0  0
    0.5131    0.6201    4.8704 C   0  0  0  0  0  0
    1.4743    1.3759    4.1769 C   0  0  0  0  0  0
    1.1668    1.9701    2.9352 C   0  0  0  0  0  0
    2.2193    2.7379    2.2456 N   0  3  0  0  0  0
    3.3228    2.2140    2.1404 O   0  0  0  0  0  0
    1.9578    3.8709    1.8558 O   0  5  0  0  0  0
   -0.1313    1.7814    2.3854 C   0  0  0  0  0  0
   -1.0948    1.0335    3.0986 C   0  0  0  0  0  0
   -0.6433    1.8321   -0.9206 H   0  0  0  0  0  0
   -0.3682   -0.4466    0.9008 H   0  0  0  0  0  0
   -0.1277   -0.1861   -2.1448 H   0  0  0  0  0  0
   -0.2083   -1.6829   -1.2591 H   0  0  0  0  0  0
   -2.1076    0.4640   -3.1989 H   0  0  0  0  0  0
   -4.5812    0.4585   -3.3594 H   0  0  0  0  0  0
   -5.9410   -0.6495   -1.6084 H   0  0  0  0  0  0
   -2.3205   -1.7461    0.4837 H   0  0  0  0  0  0
   -5.3298   -3.0713    2.1040 H   0  0  0  0  0  0
   -3.6988   -3.0874    1.5035 H   0  0  0  0  0  0
   -4.9324   -0.5345    2.7570 H   0  0  0  0  0  0
   -2.5914   -2.2940    3.6208 H   0  0  0  0  0  0
   -3.4390    0.5650    4.4365 H   0  0  0  0  0  0
   -3.5738   -0.7380    5.5839 H   0  0  0  0  0  0
    0.7720    0.1725    5.8186 H   0  0  0  0  0  0
    2.4589    1.4982    4.6042 H   0  0  0  0  0  0
   -2.0696    0.8997    2.6541 H   0  0  0  0  0  0
  1  2  2  0  0  0
  2  3  1  0  0  0
  2 28  1  0  0  0
  3  4  1  0  0  0
  3 30  1  0  0  0
  4  5  1  0  0  0
  4  8  1  0  0  0
  4 31  1  0  0  0
  5  6  2  0  0  0
  5  7  1  0  0  0
  8  9  1  0  0  0
  8 32  1  0  0  0
  8 33  1  0  0  0
  9 10  2  0  0  0
  9 14  1  0  0  0
 10 11  1  0  0  0
 10 34  1  0  0  0
 11 12  2  0  0  0
 11 35  1  0  0  0
 12 13  1  0  0  0
 12 36  1  0  0  0
 13 14  2  0  0  0
 13 15  1  0  0  0
 14 37  1  0  0  0
 15 16  1  0  0  0
 16 17  1  0  0  0
 16 38  1  0  0  0
 16 39  1  0  0  0
 17 18  2  0  0  0
 17 40  1  0  0  0
 18 19  1  0  0  0
 18 41  1  0  0  0
 19 20  1  0  0  0
 19 42  1  0  0  0
 19 43  1  0  0  0
 20 21  1  0  0  0
 21 22  1  0  0  0
 21 29  2  0  0  0
 22 23  2  0  0  0
 22 44  1  0  0  0
 23 24  1  0  0  0
 23 45  1  0  0  0
 24 25  1  0  0  0
 24 28  2  0  0  0
 25 26  2  0  0  0
 25 27  1  0  0  0
 28 29  1  0  0  0
 29 46  1  0  0  0
M  CHG  3   7  -1  25   1  27  -1
M  END
> <i_epik_Tot_Q>
-1

> <i_epik_Tot_abs_Q>
3

> <i_f3d_flags>
0

> <i_lp_mmshare_version>
64135

> <i_m_source_file_index>
1

> <b_lp_Chiralities_Consistent>
1

> <r_epik_Charging_Adjusted_Penalty>
0.000248047

> <r_epik_Ionization_Penalty>
0.000252171

> <r_epik_Ionization_Penalty_Charging>
0.000248047

> <r_epik_Ionization_Penalty_Neutral>
4.1246e-06

> <r_epik_State_Penalty>
-0

> <r_lp_Energy>
25.5164

> <r_lp_tautomer_probability>
1

> <s_epik_cmdline>
J2VwaWtfcHl0aG9uJywgJy1waCcsICc3LjAnLCAnLXRuJywgJzgnLCAnLW1hJywgJzIwMCcsICctaW1hZScsICc8aW5maWxlLm1hZT4nLCAnLW9tYWUnLCAnPG91dGZpbGUubWFlPic=

> <s_epik_input>
Tz1DKFtPSF0pW0NASF0oW0NIMl0xKVtOSF1DKD1PKWMoW2NIXTIpYyhbTitdKD1PKVtPLV0pW2NIXVtjSF1jMk9bQ0gyXVxbQ0hdPVtDSF1cW0NIMl1PYyhbY0hdMylbY0hdW2NIXVtjSF1jMTM=

> <s_lp_Force_Field>
OPLS_2005

> <s_lp_Variant>
MCD00095-1

> <s_m_source_file>
MCD00095.smi

$$$$
MCD00096
                    3D
 Schrodinger Suite 2023-4.
 48 50  0  0  1  0            999 V2000
   -0.0009   -0.1094   -0.0161 C   0  0  0  0  0  0
    1.5267    0.0035    0.0814 C   0  0  1  0  0  0
    1.9767    0.8644    1.2945 C   0  0  0  0  0  0
    1.5899    2.3633    1.2497 C   0  0  0  0  0  0
    2.1603    3.1793    0.0696 C   0  0  0  0  0  0
    3.6827    3.4189    0.1184 C   0  0  0  0  0  0
    4.2280    3.9770   -1.2223 C   0  0  0  0  0  0
    5.7690    3.9016   -1.4550 C   0  0  2  0  0  0
    6.3420    4.8269   -0.5487 O   0  0  0  0  0  0
    6.1344    4.3779   -2.8828 C   0  0  0  0  0  0
    5.5939    3.5635   -3.7906 F   0  0  0  0  0  0
    5.6719    5.6098   -3.1038 F   0  0  0  0  0  0
    7.4566    4.3746   -3.0599 F   0  0  0  0  0  0
    6.3023    2.5151   -1.2109 C   0  0  0  0  0  0
    7.5230    2.1373   -0.8166 N   0  0  0  0  0  0
    7.4547    0.7680   -0.6412 N   0  0  0  0  0  0
    6.1901    0.4303   -0.9155 C   0  0  0  0  0  0
    5.4769    1.4649   -1.4275 O   0  0  0  0  0  0
    5.4545   -0.8064   -0.6502 C   0  0  0  0  0  0
    4.1327   -0.6084   -0.4684 N   0  0  0  0  0  0
    3.3365   -1.6295   -0.0924 C   0  0  0  0  0  0
    3.8271   -2.9474    0.0437 C   0  0  0  0  0  0
    2.8987   -4.0807    0.4565 C   0  0  0  0  0  0
    3.5360   -5.2511    0.5007 F   0  0  0  0  0  0
    2.3957   -3.8301    1.6651 F   0  0  0  0  0  0
    1.8966   -4.1816   -0.4164 F   0  0  0  0  0  0
    5.2012   -3.1743   -0.2045 C   0  0  0  0  0  0
    6.0406   -2.0919   -0.5461 C   0  0  0  0  0  0
    7.4008   -2.3194   -0.7632 N   0  0  0  0  0  0
    2.0117   -1.3443    0.1911 O   0  0  0  0  0  0
   -0.4662    0.8626   -0.1790 H   0  0  0  0  0  0
   -0.4249   -0.5388    0.8921 H   0  0  0  0  0  0
   -0.2884   -0.7499   -0.8503 H   0  0  0  0  0  0
    1.8761    0.4418   -0.8538 H   0  0  0  0  0  0
    1.5533    0.4283    2.1998 H   0  0  0  0  0  0
    3.0537    0.7929    1.4320 H   0  0  0  0  0  0
    0.5034    2.4467    1.2371 H   0  0  0  0  0  0
    1.9021    2.8342    2.1825 H   0  0  0  0  0  0
    1.8873    2.6916   -0.8655 H   0  0  0  0  0  0
    1.6637    4.1499    0.0432 H   0  0  0  0  0  0
    3.9262    4.1040    0.9309 H   0  0  0  0  0  0
    4.1673    2.4819    0.3782 H   0  0  0  0  0  0
    3.7511    3.4184   -2.0285 H   0  0  0  0  0  0
    3.8800    5.0033   -1.3453 H   0  0  0  0  0  0
    6.0101    5.6877   -0.7521 H   0  0  0  0  0  0
    5.6192   -4.1663   -0.1149 H   0  0  0  0  0  0
    8.0412   -1.5476   -0.8886 H   0  0  0  0  0  0
    7.8140   -3.2222   -0.5776 H   0  0  0  0  0  0
  1  2  1  0  0  0
  1 31  1  0  0  0
  1 32  1  0  0  0
  1 33  1  0  0  0
  2  3  1  0  0  0
  2 30  1  0  0  0
  2 34  1  0  0  0
  3  4  1  0  0  0
  3 35  1  0  0  0
  3 36  1  0  0  0
  4  5  1  0  0  0
  4 37  1  0  0  0
  4 38  1  0  0  0
  5  6  1  0  0  0
  5 39  1  0  0  0
  5 40  1  0  0  0
  6  7  1  0  0  0
  6 41  1  0  0  0
  6 42  1  0  0  0
  7  8  1  0  0  0
  7 43  1  0  0  0
  7 44  1  0  0  0
  8  9  1  0  0  0
  8 10  1  0  0  0
  8 14  1  0  0  0
  9 45  1  0  0  0
 10 11  1  0  0  0
 10 12  1  0  0  0
 10 13  1  0  0  0
 14 15  2  0  0  0
 14 18  1  0  0  0
 15 16  1  0  0  0
 16 17  2  0  0  0
 17 18  1  0  0  0
 17 19  1  0  0  0
 19 20  2  0  0  0
 19 28  1  0  0  0
 20 21  1  0  0  0
 21 22  2  0  0  0
 21 30  1  0  0  0
 22 23  1  0  0  0
 22 27  1  0  0  0
 23 24  1  0  0  0
 23 25  1  0  0  0
 23 26  1  0  0  0
 27 28  2  0  0  0
 27 46  1  0  0  0
 28 29  1  0  0  0
 29 47  1  0  0  0
 29 48  1  0  0  0
M  END
> <i_epik_Tot_Q>
0

> <i_epik_Tot_abs_Q>
0

> <i_f3d_flags>
0

> <i_lp_mmshare_version>
64135

> <i_m_source_file_index>
1

> <b_lp_Chiralities_Consistent>
1

> <r_epik_Charging_Adjusted_Penalty>
0

> <r_epik_Ionization_Penalty>
3.48333e-05

> <r_epik_Ionization_Penalty_Charging>
0

> <r_epik_Ionization_Penalty_Neutral>
3.48333e-05

> <r_epik_State_Penalty>
-0

> <r_lp_Energy>
34.1489

> <r_lp_tautomer_probability>
1

> <s_epik_cmdline>
J2VwaWtfcHl0aG9uJywgJy1waCcsICc3LjAnLCAnLXRuJywgJzgnLCAnLW1hJywgJzIwMCcsICctaW1hZScsICc8aW5maWxlLm1hZT4nLCAnLW9tYWUnLCAnPG91dGZpbGUubWFlPic=

> <s_epik_input>
YzEybm5jKG8yKWMzbmMoYyhDKEYpKEYpRilbY0hdYzNbTkgyXSlPW0NAQEhdKFtDSDNdKVtDSDJdW0NIMl1bQ0gyXVtDSDJdW0NIMl1bQ0BdMShbT0hdKUMoRikoRilG

> <s_lp_Force_Field>
OPLS_2005

> <s_lp_Variant>
MCD00096-1

> <s_m_source_file>
MCD00096.smi

$$$$
MCD00097
                    3D
 Schrodinger Suite 2023-4.
 46 48  0  0  1  0            999 V2000
   -2.0904    3.0402    0.4972 O   0  0  0  0  0  0
   -1.6425    1.9009    0.6037 C   0  0  0  0  0  0
   -0.5532    1.4857   -0.0696 N   0  0  0  0  0  0
    0.0873    0.1672   -0.0212 C   0  0  2  0  0  0
    1.6082    0.3469   -0.0899 C   0  0  0  0  0  0
    2.2777   -0.0456    0.8907 O   0  0  0  0  0  0
    2.0773    0.8753   -1.1225 O   0  5  0  0  0  0
   -0.5071   -0.7807   -1.0922 C   0  0  0  0  0  0
   -0.3648   -2.2695   -0.8002 C   0  0  0  0  0  0
    0.9051   -2.8826   -0.8168 C   0  0  0  0  0  0
    1.0328   -4.2532   -0.5288 C   0  0  0  0  0  0
   -0.1103   -5.0229   -0.2452 C   0  0  0  0  0  0
   -1.3930   -4.4391   -0.2569 C   0  0  0  0  0  0
   -1.5094   -3.0503   -0.5212 C   0  0  0  0  0  0
   -2.4609   -5.2774   -0.0069 O   0  0  0  0  0  0
   -3.7658   -4.8610   -0.4006 C   0  0  0  0  0  0
   -4.4959   -4.0669    0.6664 C   0  0  0  0  0  0
   -4.1361   -3.9632    1.9568 C   0  0  0  0  0  0
   -4.8882   -3.1245    2.9758 C   0  0  0  0  0  0
   -4.0367   -2.1954    3.6465 O   0  0  0  0  0  0
   -3.5088   -1.1287    2.9449 C   0  0  0  0  0  0
   -2.5638   -0.3047    3.5869 C   0  0  0  0  0  0
   -1.9495    0.7436    2.8636 C   0  0  0  0  0  0
   -0.9143    1.6409    3.5432 C   0  0  0  0  0  0
    0.2824    1.4864    2.9788 F   0  0  0  0  0  0
   -1.2790    2.9196    3.4475 F   0  0  0  0  0  0
   -0.7951    1.3512    4.8396 F   0  0  0  0  0  0
   -2.3151    0.9064    1.5009 C   0  0  0  0  0  0
   -3.3096    0.0628    0.9669 C   0  0  0  0  0  0
   -3.8990   -0.9272    1.6639 N   0  0  0  0  0  0
   -0.1007    2.1612   -0.6689 H   0  0  0  0  0  0
   -0.1141   -0.2826    0.9516 H   0  0  0  0  0  0
   -1.5679   -0.5672   -1.2226 H   0  0  0  0  0  0
   -0.0591   -0.5762   -2.0656 H   0  0  0  0  0  0
    1.7891   -2.3047   -1.0422 H   0  0  0  0  0  0
    2.0088   -4.7154   -0.5311 H   0  0  0  0  0  0
   -0.0035   -6.0771   -0.0357 H   0  0  0  0  0  0
   -2.4749   -2.5680   -0.5130 H   0  0  0  0  0  0
   -3.7404   -4.2974   -1.3342 H   0  0  0  0  0  0
   -4.3561   -5.7529   -0.6103 H   0  0  0  0  0  0
   -5.3846   -3.5530    0.3305 H   0  0  0  0  0  0
   -3.2563   -4.4761    2.3169 H   0  0  0  0  0  0
   -5.7406   -2.6170    2.5209 H   0  0  0  0  0  0
   -5.2994   -3.7992    3.7265 H   0  0  0  0  0  0
   -2.3014   -0.5015    4.6158 H   0  0  0  0  0  0
   -3.6207    0.1596   -0.0631 H   0  0  0  0  0  0
  1  2  2  0  0  0
  2  3  1  0  0  0
  2 28  1  0  0  0
  3  4  1  0  0  0
  3 31  1  0  0  0
  4  5  1  0  0  0
  4  8  1  0  0  0
  4 32  1  0  0  0
  5  6  2  0  0  0
  5  7  1  0  0  0
  8  9  1  0  0  0
  8 33  1  0  0  0
  8 34  1  0  0  0
  9 10  2  0  0  0
  9 14  1  0  0  0
 10 11  1  0  0  0
 10 35  1  0  0  0
 11 12  2  0  0  0
 11 36  1  0  0  0
 12 13  1  0  0  0
 12 37  1  0  0  0
 13 14  2  0  0  0
 13 15  1  0  0  0
 14 38  1  0  0  0
 15 16  1  0  0  0
 16 17  1  0  0  0
 16 39  1  0  0  0
 16 40  1  0  0  0
 17 18  2  0  0  0
 17 41  1  0  0  0
 18 19  1  0  0  0
 18 42  1  0  0  0
 19 20  1  0  0  0
 19 43  1  0  0  0
 19 44  1  0  0  0
 20 21  1  0  0  0
 21 22  2  0  0  0
 21 30  1  0  0  0
 22 23  1  0  0  0
 22 45  1  0  0  0
 23 24  1  0  0  0
 23 28  2  0  0  0
 24 25  1  0  0  0
 24 26  1  0  0  0
 24 27  1  0  0  0
 28 29  1  0  0  0
 29 30  2  0  0  0
 29 46  1  0  0  0
M  CHG  1   7  -1
M  END
> <i_epik_Tot_Q>
-1

> <i_epik_Tot_abs_Q>
1

> <i_f3d_flags>
0

> <i_lp_mmshare_version>
64135

> <i_m_source_file_index>
1

> <b_lp_Chiralities_Consistent>
1

> <r_epik_Charging_Adjusted_Penalty>
0.000203761

> <r_epik_Ionization_Penalty>
0.000207848

> <r_epik_Ionization_Penalty_Charging>
0.000203761

> <r_epik_Ionization_Penalty_Neutral>
4.0866e-06

> <r_epik_State_Penalty>
-0

> <r_lp_Energy>
19.6677

> <r_lp_tautomer_probability>
1

> <s_epik_cmdline>
J2VwaWtfcHl0aG9uJywgJy1waCcsICc3LjAnLCAnLXRuJywgJzgnLCAnLW1hJywgJzIwMCcsICctaW1hZScsICc8aW5maWxlLm1hZT4nLCAnLW9tYWUnLCAnPG91dGZpbGUubWFlPic=

> <s_epik_input>
Tz1DKFtPSF0pW0NASF0oW0NIMl0xKVtOSF1DKD1PKWMoW2NIXW4yKWMoQyhGKShGKUYpW2NIXWMyT1tDSDJdXFtDSF09W0NIXVxbQ0gyXU9jKFtjSF0zKVtjSF1bY0hdW2NIXWMxMw==

> <s_lp_Force_Field>
OPLS_2005

> <s_lp_Variant>
MCD00097-1

> <s_m_source_file>
MCD00097.smi

$$$$
MCD00098
                    3D
 Schrodinger Suite 2023-4.
 50 52  0  0  1  0            999 V2000
   -1.2834    2.0559    0.7173 N   0  5  0  0  0  0
   -0.6592    1.1426    0.4491 N   0  3  0  0  0  0
   -0.0981    0.0682    0.1861 N   0  0  0  0  0  0
    1.3141    0.1131    0.1192 C   0  0  0  0  0  0
    2.0685    1.3152    0.1643 C   0  0  0  0  0  0
    3.4774    1.2934    0.1434 C   0  0  0  0  0  0
    4.1574    0.0691    0.0024 C   0  0  0  0  0  0
    3.4270   -1.1310   -0.0458 C   0  0  0  0  0  0
    2.0205   -1.1155    0.0502 C   0  0  0  0  0  0
    1.3624   -2.3194    0.1360 O   0  0  0  0  0  0
    0.7908   -2.6480    1.3469 C   0  0  0  0  0  0
    1.3975   -2.2888    2.5733 C   0  0  0  0  0  0
    0.7599   -2.5582    3.7999 C   0  0  0  0  0  0
   -0.4743   -3.2376    3.8057 C   0  0  0  0  0  0
   -1.0738   -3.6278    2.5921 C   0  0  0  0  0  0
   -2.7468   -4.5384    2.6297 Br  0  0  0  0  0  0
   -0.4455   -3.3288    1.3634 C   0  0  0  0  0  0
   -1.0389   -3.6820    0.1850 O   0  0  0  0  0  0
    1.3898   -2.0893    5.1023 C   0  0  0  0  0  0
    0.7273   -0.8271    5.6953 C   0  0  0  0  0  0
    0.4676    0.2183    4.7064 N   0  0  0  0  0  0
    1.3211    1.1136    4.1793 C   0  0  0  0  0  0
    0.9419    1.9001    3.3144 O   0  0  0  0  0  0
    2.7831    1.1789    4.6491 C   0  0  0  0  0  0
    3.7447    0.5586    3.6164 C   0  0  0  0  0  0
    5.0162    1.2686    3.5084 N   0  0  0  0  0  0
    5.3399    2.2784    2.6797 C   0  0  0  0  0  0
    6.5021    2.6698    2.5975 O   0  0  0  0  0  0
    4.2593    2.9944    1.8535 C   0  0  0  0  0  0
    4.2454    2.5821    0.3652 C   0  0  0  0  0  0
    1.5803    2.2736    0.2643 H   0  0  0  0  0  0
    5.2371    0.0423   -0.0142 H   0  0  0  0  0  0
    3.9512   -2.0736   -0.1035 H   0  0  0  0  0  0
    2.3441   -1.7706    2.5775 H   0  0  0  0  0  0
   -0.9696   -3.4520    4.7413 H   0  0  0  0  0  0
   -0.5390   -3.4137   -0.5708 H   0  0  0  0  0  0
    1.3442   -2.9012    5.8288 H   0  0  0  0  0  0
    2.4503   -1.9029    4.9365 H   0  0  0  0  0  0
   -0.2460   -1.1072    6.0989 H   0  0  0  0  0  0
    1.2953   -0.4459    6.5438 H   0  0  0  0  0  0
   -0.4779    0.2483    4.3527 H   0  0  0  0  0  0
    3.0166    2.2366    4.7792 H   0  0  0  0  0  0
    2.9326    0.7293    5.6290 H   0  0  0  0  0  0
    3.9739   -0.4652    3.9092 H   0  0  0  0  0  0
    3.2779    0.4774    2.6388 H   0  0  0  0  0  0
    5.7728    0.8872    4.0581 H   0  0  0  0  0  0
    3.2714    2.9036    2.3027 H   0  0  0  0  0  0
    4.4971    4.0575    1.9055 H   0  0  0  0  0  0
    3.7742    3.3682   -0.2261 H   0  0  0  0  0  0
    5.2607    2.4830   -0.0221 H   0  0  0  0  0  0
  1  2  2  0  0  0
  2  3  2  0  0  0
  3  4  1  0  0  0
  4  5  2  0  0  0
  4  9  1  0  0  0
  5  6  1  0  0  0
  5 31  1  0  0  0
  6  7  2  0  0  0
  6 30  1  0  0  0
  7  8  1  0  0  0
  7 32  1  0  0  0
  8  9  2  0  0  0
  8 33  1  0  0  0
  9 10  1  0  0  0
 10 11  1  0  0  0
 11 12  2  0  0  0
 11 17  1  0  0  0
 12 13  1  0  0  0
 12 34  1  0  0  0
 13 14  2  0  0  0
 13 19  1  0  0  0
 14 15  1  0  0  0
 14 35  1  0  0  0
 15 16  1  0  0  0
 15 17  2  0  0  0
 17 18  1  0  0  0
 18 36  1  0  0  0
 19 20  1  0  0  0
 19 37  1  0  0  0
 19 38  1  0  0  0
 20 21  1  0  0  0
 20 39  1  0  0  0
 20 40  1  0  0  0
 21 22  1  0  0  0
 21 41  1  0  0  0
 22 23  2  0  0  0
 22 24  1  0  0  0
 24 25  1  0  0  0
 24 42  1  0  0  0
 24 43  1  0  0  0
 25 26  1  0  0  0
 25 44  1  0  0  0
 25 45  1  0  0  0
 26 27  1  0  0  0
 26 46  1  0  0  0
 27 28  2  0  0  0
 27 29  1  0  0  0
 29 30  1  0  0  0
 29 47  1  0  0  0
 29 48  1  0  0  0
 30 49  1  0  0  0
 30 50  1  0  0  0
M  CHG  2   1  -1   2   1
M  END
> <i_epik_Tot_Q>
0

> <i_epik_Tot_abs_Q>
2

> <i_f3d_flags>
0

> <i_lp_mmshare_version>
64135

> <i_m_source_file_index>
1

> <b_lp_Chiralities_Consistent>
1

> <r_epik_Charging_Adjusted_Penalty>
0.360635

> <r_epik_Ionization_Penalty>
0.360635

> <r_epik_Ionization_Penalty_Charging>
0

> <r_epik_Ionization_Penalty_Neutral>
0.360635

> <r_epik_State_Penalty>
0.360635

> <r_lp_Energy>
26.4375

> <r_lp_tautomer_probability>
1

> <s_epik_cmdline>
J2VwaWtfcHl0aG9uJywgJy1waCcsICc3LjAnLCAnLXRuJywgJzgnLCAnLW1hJywgJzIwMCcsICctaW1hZScsICc8aW5maWxlLm1hZT4nLCAnLW9tYWUnLCAnPG91dGZpbGUubWFlPic=

> <s_epik_input>
W04tXT1bTitdPU5jKFtjSF1jMTIpYyhbY0hdW2NIXTEpT2MzW2NIXWMoW2NIXWMoQnIpYzNbT0hdKVtDSDJdW0NIMl1bTkhdQyg9TylbQ0gyXVtDSDJdW05IXUMoPU8pW0NIMl1bQ0gyXTI=

> <s_lp_Force_Field>
OPLS_2005

> <s_lp_Variant>
MCD00098-1

> <s_m_source_file>
MCD00098.smi

$$$$
MCD00098
                    3D
 Schrodinger Suite 2023-4.
 49 51  0  0  1  0            999 V2000
   -0.9917    2.4535   -0.2281 N   0  5  0  0  0  0
   -0.4669    1.4558   -0.3877 N   0  3  0  0  0  0
    0.0048    0.3123   -0.4756 N   0  0  0  0  0  0
    1.4066    0.2165   -0.3188 C   0  0  0  0  0  0
    2.2764    1.3388   -0.2698 C   0  0  0  0  0  0
    3.6601    1.1813   -0.0497 C   0  0  0  0  0  0
    4.2037   -0.1124    0.0654 C   0  0  0  0  0  0
    3.3615   -1.2349    0.0008 C   0  0  0  0  0  0
    1.9706   -1.0735   -0.1585 C   0  0  0  0  0  0
    1.1708   -2.1881   -0.0821 O   0  0  0  0  0  0
    0.5319   -2.4528    1.1138 C   0  0  0  0  0  0
    0.9605   -1.8763    2.3333 C   0  0  0  0  0  0
    0.2714   -2.1196    3.5337 C   0  0  0  0  0  0
   -0.8460   -2.9754    3.5357 C   0  0  0  0  0  0
   -1.2739   -3.5762    2.3349 C   0  0  0  0  0  0
   -2.7925   -4.7286    2.3716 Br  0  0  0  0  0  0
   -0.5895   -3.3137    1.1248 C   0  0  0  0  0  0
   -1.0154   -3.8851   -0.0416 O   0  5  0  0  0  0
    0.7352   -1.4140    4.7911 C   0  0  0  0  0  0
    0.1694    0.0123    4.8714 C   0  0  0  0  0  0
    0.9211    0.8140    5.8332 N   0  0  0  0  0  0
    1.7739    1.8214    5.5705 C   0  0  0  0  0  0
    2.4212    2.3421    6.4772 O   0  0  0  0  0  0
    1.9187    2.3336    4.1250 C   0  0  0  0  0  0
    2.7907    3.5997    3.9901 C   0  0  0  0  0  0
    2.5693    4.2553    2.7049 N   0  0  0  0  0  0
    3.2259    4.0795    1.5455 C   0  0  0  0  0  0
    2.8945    4.7171    0.5477 O   0  0  0  0  0  0
    4.4101    3.0977    1.4628 C   0  0  0  0  0  0
    4.5612    2.3968    0.0925 C   0  0  0  0  0  0
    1.8898    2.3411   -0.3757 H   0  0  0  0  0  0
    5.2628   -0.2492    0.2274 H   0  0  0  0  0  0
    3.7767   -2.2247    0.1224 H   0  0  0  0  0  0
    1.8130   -1.2146    2.3651 H   0  0  0  0  0  0
   -1.3825   -3.1665    4.4533 H   0  0  0  0  0  0
    0.4495   -1.9889    5.6728 H   0  0  0  0  0  0
    1.8261   -1.3870    4.7804 H   0  0  0  0  0  0
    0.1759    0.4650    3.8806 H   0  0  0  0  0  0
   -0.8779   -0.0203    5.1729 H   0  0  0  0  0  0
    0.8351    0.5339    6.7996 H   0  0  0  0  0  0
    2.3142    1.5368    3.4936 H   0  0  0  0  0  0
    0.9191    2.5674    3.7560 H   0  0  0  0  0  0
    2.5147    4.3276    4.7542 H   0  0  0  0  0  0
    3.8454    3.3771    4.1555 H   0  0  0  0  0  0
    1.8133    4.9247    2.6877 H   0  0  0  0  0  0
    5.3056    3.6907    1.6509 H   0  0  0  0  0  0
    4.3751    2.3416    2.2463 H   0  0  0  0  0  0
    4.3757    3.0806   -0.7367 H   0  0  0  0  0  0
    5.5974    2.0775   -0.0255 H   0  0  0  0  0  0
  1  2  2  0  0  0
  2  3  2  0  0  0
  3  4  1  0  0  0
  4  5  2  0  0  0
  4  9  1  0  0  0
  5  6  1  0  0  0
  5 31  1  0  0  0
  6  7  2  0  0  0
  6 30  1  0  0  0
  7  8  1  0  0  0
  7 32  1  0  0  0
  8  9  2  0  0  0
  8 33  1  0  0  0
  9 10  1  0  0  0
 10 11  1  0  0  0
 11 12  2  0  0  0
 11 17  1  0  0  0
 12 13  1  0  0  0
 12 34  1  0  0  0
 13 14  2  0  0  0
 13 19  1  0  0  0
 14 15  1  0  0  0
 14 35  1  0  0  0
 15 16  1  0  0  0
 15 17  2  0  0  0
 17 18  1  0  0  0
 19 20  1  0  0  0
 19 36  1  0  0  0
 19 37  1  0  0  0
 20 21  1  0  0  0
 20 38  1  0  0  0
 20 39  1  0  0  0
 21 22  1  0  0  0
 21 40  1  0  0  0
 22 23  2  0  0  0
 22 24  1  0  0  0
 24 25  1  0  0  0
 24 41  1  0  0  0
 24 42  1  0  0  0
 25 26  1  0  0  0
 25 43  1  0  0  0
 25 44  1  0  0  0
 26 27  1  0  0  0
 26 45  1  0  0  0
 27 28  2  0  0  0
 27 29  1  0  0  0
 29 30  1  0  0  0
 29 46  1  0  0  0
 29 47  1  0  0  0
 30 48  1  0  0  0
 30 49  1  0  0  0
M  CHG  3   1  -1   2   1  18  -1
M  END
> <i_epik_Tot_Q>
-1

> <i_epik_Tot_abs_Q>
3

> <i_f3d_flags>
0

> <i_lp_mmshare_version>
64135

> <i_m_source_file_index>
1

> <b_lp_Chiralities_Consistent>
1

> <r_epik_Charging_Adjusted_Penalty>
0.930689

> <r_epik_Ionization_Penalty>
0.465345

> <r_epik_Ionization_Penalty_Charging>
0.465345

> <r_epik_Ionization_Penalty_Neutral>
3.35378e-08

> <r_epik_State_Penalty>
0.465345

> <r_lp_Energy>
24.5314

> <s_epik_cmdline>
J2VwaWtfcHl0aG9uJywgJy1waCcsICc3LjAnLCAnLXRuJywgJzgnLCAnLW1hJywgJzIwMCcsICctaW1hZScsICc8aW5maWxlLm1hZT4nLCAnLW9tYWUnLCAnPG91dGZpbGUubWFlPic=

> <s_epik_input>
W04tXT1bTitdPU5jKFtjSF1jMTIpYyhbY0hdW2NIXTEpT2MzW2NIXWMoW2NIXWMoQnIpYzNbT0hdKVtDSDJdW0NIMl1bTkhdQyg9TylbQ0gyXVtDSDJdW05IXUMoPU8pW0NIMl1bQ0gyXTI=

> <s_lp_Force_Field>
OPLS_2005

> <s_lp_Variant>
MCD00098-2

> <s_m_source_file>
MCD00098.smi

$$$$
MCD00099
                    3D
 Schrodinger Suite 2023-4.
 49 51  0  0  1  0            999 V2000
   -1.5366    1.6616    7.2487 O   0  0  0  0  0  0
   -0.8894    1.1611    6.3318 C   0  0  0  0  0  0
   -0.2669    2.0771    5.2679 C   0  0  0  0  0  0
   -1.2532    2.4090    4.1350 C   0  0  0  0  0  0
   -0.6102    3.2681    3.1492 N   0  0  0  0  0  0
   -1.1089    3.6871    1.9742 C   0  0  0  0  0  0
   -0.4387    4.4036    1.2334 O   0  0  0  0  0  0
   -2.5301    3.2848    1.5412 C   0  0  0  0  0  0
   -2.5814    2.6532    0.1339 C   0  0  0  0  0  0
   -2.1036    1.2106    0.1068 C   0  0  0  0  0  0
   -3.0361    0.1566    0.1688 C   0  0  0  0  0  0
   -2.5926   -1.1784    0.1684 C   0  0  0  0  0  0
   -1.2151   -1.4749    0.1184 C   0  0  0  0  0  0
   -0.2703   -0.4203    0.0243 C   0  0  0  0  0  0
    1.1753   -0.6857   -0.0481 N   0  3  0  0  0  0
    1.5613   -1.6035   -0.7629 O   0  0  0  0  0  0
    1.9204    0.0468    0.5950 O   0  5  0  0  0  0
   -0.7274    0.9162    0.0206 C   0  0  0  0  0  0
   -0.8279   -2.7894    0.2202 O   0  0  0  0  0  0
   -0.2800   -3.2078    1.4142 C   0  0  0  0  0  0
   -0.7037   -2.6621    2.6468 C   0  0  0  0  0  0
   -0.0883   -3.0392    3.8545 C   0  0  0  0  0  0
    0.9304   -4.0113    3.8430 C   0  0  0  0  0  0
    1.3368   -4.5932    2.6259 C   0  0  0  0  0  0
    2.7155   -5.9096    2.6476 Br  0  0  0  0  0  0
    0.7360   -4.1899    1.4110 C   0  0  0  0  0  0
    1.1426   -4.7397    0.2277 O   0  5  0  0  0  0
   -0.5160   -2.3589    5.1398 C   0  0  0  0  0  0
   -0.0638   -0.8908    5.1680 C   0  0  0  0  0  0
   -0.6955   -0.1671    6.2638 N   0  0  0  0  0  0
    0.0426    3.0008    5.7591 H   0  0  0  0  0  0
    0.6478    1.6392    4.8672 H   0  0  0  0  0  0
   -1.5892    1.4909    3.6504 H   0  0  0  0  0  0
   -2.1353    2.9122    4.5342 H   0  0  0  0  0  0
    0.3260    3.5719    3.3754 H   0  0  0  0  0  0
   -3.0283    2.6339    2.2582 H   0  0  0  0  0  0
   -3.1142    4.2054    1.5267 H   0  0  0  0  0  0
   -3.6074    2.6869   -0.2345 H   0  0  0  0  0  0
   -1.9971    3.2363   -0.5794 H   0  0  0  0  0  0
   -4.0937    0.3674    0.2297 H   0  0  0  0  0  0
   -3.3110   -1.9816    0.2398 H   0  0  0  0  0  0
   -0.0140    1.7253   -0.0410 H   0  0  0  0  0  0
   -1.4870   -1.9195    2.6744 H   0  0  0  0  0  0
    1.4088   -4.3091    4.7642 H   0  0  0  0  0  0
   -1.6030   -2.4192    5.2080 H   0  0  0  0  0  0
   -0.1183   -2.8956    6.0021 H   0  0  0  0  0  0
    1.0214   -0.8280    5.2581 H   0  0  0  0  0  0
   -0.3330   -0.4185    4.2231 H   0  0  0  0  0  0
   -1.0881   -0.7303    7.0044 H   0  0  0  0  0  0
  1  2  2  0  0  0
  2  3  1  0  0  0
  2 30  1  0  0  0
  3  4  1  0  0  0
  3 31  1  0  0  0
  3 32  1  0  0  0
  4  5  1  0  0  0
  4 33  1  0  0  0
  4 34  1  0  0  0
  5  6  1  0  0  0
  5 35  1  0  0  0
  6  7  2  0  0  0
  6  8  1  0  0  0
  8  9  1  0  0  0
  8 36  1  0  0  0
  8 37  1  0  0  0
  9 10  1  0  0  0
  9 38  1  0  0  0
  9 39  1  0  0  0
 10 11  2  0  0  0
 10 18  1  0  0  0
 11 12  1  0  0  0
 11 40  1  0  0  0
 12 13  2  0  0  0
 12 41  1  0  0  0
 13 14  1  0  0  0
 13 19  1  0  0  0
 14 15  1  0  0  0
 14 18  2  0  0  0
 15 16  2  0  0  0
 15 17  1  0  0  0
 18 42  1  0  0  0
 19 20  1  0  0  0
 20 21  1  0  0  0
 20 26  2  0  0  0
 21 22  2  0  0  0
 21 43  1  0  0  0
 22 23  1  0  0  0
 22 28  1  0  0  0
 23 24  2  0  0  0
 23 44  1  0  0  0
 24 25  1  0  0  0
 24 26  1  0  0  0
 26 27  1  0  0  0
 28 29  1  0  0  0
 28 45  1  0  0  0
 28 46  1  0  0  0
 29 30  1  0  0  0
 29 47  1  0  0  0
 29 48  1  0  0  0
 30 49  1  0  0  0
M  CHG  3  15   1  17  -1  27  -1
M  END
> <i_epik_Tot_Q>
-1

> <i_epik_Tot_abs_Q>
3

> <i_f3d_flags>
0

> <i_lp_mmshare_version>
64135

> <i_m_source_file_index>
1

> <b_lp_Chiralities_Consistent>
1

> <r_epik_Charging_Adjusted_Penalty>
0.432681

> <r_epik_Ionization_Penalty>
0.21634

> <r_epik_Ionization_Penalty_Charging>
0.21634

> <r_epik_Ionization_Penalty_Neutral>
3.35378e-08

> <r_epik_State_Penalty>
0.21634

> <r_lp_Energy>
24.7801

> <r_lp_tautomer_probability>
1

> <s_epik_cmdline>
J2VwaWtfcHl0aG9uJywgJy1waCcsICc3LjAnLCAnLXRuJywgJzgnLCAnLW1hJywgJzIwMCcsICctaW1hZScsICc8aW5maWxlLm1hZT4nLCAnLW9tYWUnLCAnPG91dGZpbGUubWFlPic=

> <s_epik_input>
W0NIMl0xW0NIMl1DKD1PKVtOSF1bQ0gyXVtDSDJdQyg9TylbTkhdW0NIMl1bQ0gyXWMoW2NIXWMoQnIpYzJbT0hdKVtjSF1jMk9jKFtjSF1bY0hdYzEzKWMoW04rXSg9TylbTy1dKVtjSF0z

> <s_lp_Force_Field>
OPLS_2005

> <s_lp_Variant>
MCD00099-1

> <s_m_source_file>
MCD00099.smi

$$$$
MCD00099
                    3D
 Schrodinger Suite 2023-4.
 50 52  0  0  1  0            999 V2000
   -2.1326    2.0843    7.1545 O   0  0  0  0  0  0
   -1.5202    1.7396    6.1460 C   0  0  0  0  0  0
   -1.2981    2.7671    5.0179 C   0  0  0  0  0  0
   -2.5975    3.4682    4.5693 C   0  0  0  0  0  0
   -3.5428    2.5368    3.9555 N   0  0  0  0  0  0
   -3.7358    2.2981    2.6467 C   0  0  0  0  0  0
   -4.5758    1.4771    2.2830 O   0  0  0  0  0  0
   -2.9104    3.0765    1.6041 C   0  0  0  0  0  0
   -2.9509    2.4896    0.1741 C   0  0  0  0  0  0
   -2.1517    1.2043    0.0439 C   0  0  0  0  0  0
   -2.8040   -0.0437    0.0031 C   0  0  0  0  0  0
   -2.0502   -1.2308   -0.0156 C   0  0  0  0  0  0
   -0.6413   -1.1816    0.0092 C   0  0  0  0  0  0
    0.0238    0.0723   -0.0320 C   0  0  0  0  0  0
    1.4936    0.1647   -0.0590 N   0  3  0  0  0  0
    2.1147   -0.6673   -0.7115 O   0  0  0  0  0  0
    2.0205    1.0830    0.5602 O   0  5  0  0  0  0
   -0.7444    1.2569   -0.0047 C   0  0  0  0  0  0
    0.0480   -2.3577    0.1869 O   0  0  0  0  0  0
    0.6013   -2.5634    1.4332 C   0  0  0  0  0  0
   -0.0512   -2.1147    2.6043 C   0  0  0  0  0  0
    0.5725   -2.2041    3.8619 C   0  0  0  0  0  0
    1.8331   -2.8254    3.9663 C   0  0  0  0  0  0
    2.4705   -3.3287    2.8141 C   0  0  0  0  0  0
    4.1744   -4.1641    2.9829 Br  0  0  0  0  0  0
    1.8611   -3.1895    1.5471 C   0  0  0  0  0  0
    2.4976   -3.6394    0.4256 O   0  0  0  0  0  0
   -0.1077   -1.5916    5.0739 C   0  0  0  0  0  0
   -0.3377   -0.0798    4.8941 C   0  0  0  0  0  0
   -1.0393    0.4891    6.0353 N   0  0  0  0  0  0
   -0.6081    3.5189    5.4019 H   0  0  0  0  0  0
   -0.8045    2.3372    4.1482 H   0  0  0  0  0  0
   -3.0916    3.9225    5.4288 H   0  0  0  0  0  0
   -2.3657    4.2986    3.9020 H   0  0  0  0  0  0
   -4.1172    2.0108    4.5987 H   0  0  0  0  0  0
   -3.3088    4.0911    1.5762 H   0  0  0  0  0  0
   -1.8729    3.1586    1.9298 H   0  0  0  0  0  0
   -3.9793    2.3249   -0.1510 H   0  0  0  0  0  0
   -2.5359    3.2178   -0.5235 H   0  0  0  0  0  0
   -3.8826   -0.0966    0.0304 H   0  0  0  0  0  0
   -2.5560   -2.1847    0.0130 H   0  0  0  0  0  0
   -0.2509    2.2180    0.0040 H   0  0  0  0  0  0
   -1.0229   -1.6484    2.5392 H   0  0  0  0  0  0
    2.3212   -2.9087    4.9262 H   0  0  0  0  0  0
    2.0187   -3.4529   -0.3674 H   0  0  0  0  0  0
   -1.0605   -2.1000    5.2276 H   0  0  0  0  0  0
    0.4923   -1.7744    5.9662 H   0  0  0  0  0  0
    0.6172    0.4315    4.7631 H   0  0  0  0  0  0
   -0.9319    0.1003    3.9975 H   0  0  0  0  0  0
   -1.2033   -0.1345    6.8128 H   0  0  0  0  0  0
  1  2  2  0  0  0
  2  3  1  0  0  0
  2 30  1  0  0  0
  3  4  1  0  0  0
  3 31  1  0  0  0
  3 32  1  0  0  0
  4  5  1  0  0  0
  4 33  1  0  0  0
  4 34  1  0  0  0
  5  6  1  0  0  0
  5 35  1  0  0  0
  6  7  2  0  0  0
  6  8  1  0  0  0
  8  9  1  0  0  0
  8 36  1  0  0  0
  8 37  1  0  0  0
  9 10  1  0  0  0
  9 38  1  0  0  0
  9 39  1  0  0  0
 10 11  2  0  0  0
 10 18  1  0  0  0
 11 12  1  0  0  0
 11 40  1  0  0  0
 12 13  2  0  0  0
 12 41  1  0  0  0
 13 14  1  0  0  0
 13 19  1  0  0  0
 14 15  1  0  0  0
 14 18  2  0  0  0
 15 16  2  0  0  0
 15 17  1  0  0  0
 18 42  1  0  0  0
 19 20  1  0  0  0
 20 21  1  0  0  0
 20 26  2  0  0  0
 21 22  2  0  0  0
 21 43  1  0  0  0
 22 23  1  0  0  0
 22 28  1  0  0  0
 23 24  2  0  0  0
 23 44  1  0  0  0
 24 25  1  0  0  0
 24 26  1  0  0  0
 26 27  1  0  0  0
 27 45  1  0  0  0
 28 29  1  0  0  0
 28 46  1  0  0  0
 28 47  1  0  0  0
 29 30  1  0  0  0
 29 48  1  0  0  0
 29 49  1  0  0  0
 30 50  1  0  0  0
M  CHG  2  15   1  17  -1
M  END
> <i_epik_Tot_Q>
0

> <i_epik_Tot_abs_Q>
2

> <i_f3d_flags>
0

> <i_lp_mmshare_version>
64135

> <i_m_source_file_index>
1

> <b_lp_Chiralities_Consistent>
1

> <r_epik_Charging_Adjusted_Penalty>
0.701796

> <r_epik_Ionization_Penalty>
0.701796

> <r_epik_Ionization_Penalty_Charging>
0

> <r_epik_Ionization_Penalty_Neutral>
0.701796

> <r_epik_State_Penalty>
0.701796

> <r_lp_Energy>
21.2245

> <r_lp_tautomer_probability>
1

> <s_epik_cmdline>
J2VwaWtfcHl0aG9uJywgJy1waCcsICc3LjAnLCAnLXRuJywgJzgnLCAnLW1hJywgJzIwMCcsICctaW1hZScsICc8aW5maWxlLm1hZT4nLCAnLW9tYWUnLCAnPG91dGZpbGUubWFlPic=

> <s_epik_input>
W0NIMl0xW0NIMl1DKD1PKVtOSF1bQ0gyXVtDSDJdQyg9TylbTkhdW0NIMl1bQ0gyXWMoW2NIXWMoQnIpYzJbT0hdKVtjSF1jMk9jKFtjSF1bY0hdYzEzKWMoW04rXSg9TylbTy1dKVtjSF0z

> <s_lp_Force_Field>
OPLS_2005

> <s_lp_Variant>
MCD00099-2

> <s_m_source_file>
MCD00099.smi

$$$$
MCD00100
                    3D
 Schrodinger Suite 2023-4.
 60 64  0  0  1  0            999 V2000
    4.2781   -2.2928    0.6704 C   0  0  0  0  0  0
    3.4178   -3.3962    0.5583 C   0  0  0  0  0  0
    2.0704   -3.3257    0.9529 C   0  0  0  0  0  0
    1.6305   -2.0844    1.4762 C   0  0  0  0  0  0
    2.4863   -0.9475    1.5889 C   0  0  0  0  0  0
    3.8375   -1.0566    1.1781 C   0  0  0  0  0  0
    2.0243    0.3036    2.0793 C   0  0  0  0  0  0
    0.6842    0.3479    2.5104 C   0  0  0  0  0  0
   -0.1385   -0.7771    2.4002 C   0  0  0  0  0  0
    0.3208   -1.9377    1.8753 N   0  3  0  0  0  0
   -0.7182   -2.9994    1.7273 C   0  0  0  0  0  0
   -1.5961   -2.7369    0.4850 C   0  0  0  0  0  0
   -0.8704   -2.9083   -0.8643 C   0  0  0  0  0  0
   -1.5644   -2.2239   -2.0597 C   0  0  0  0  0  0
   -1.4435   -0.7395   -1.9812 N   0  3  0  0  0  0
   -0.2489   -0.2311   -2.3739 C   0  0  0  0  0  0
    0.0157    1.1455   -2.3233 C   0  0  0  0  0  0
   -0.9771    2.0311   -1.8562 C   0  0  0  0  0  0
   -2.2331    1.4872   -1.4710 C   0  0  0  0  0  0
   -3.2719    2.3356   -1.0117 C   0  0  0  0  0  0
   -4.5116    1.8100   -0.6125 C   0  0  0  0  0  0
   -4.7296    0.4255   -0.6599 C   0  0  0  0  0  0
   -3.7122   -0.4324   -1.1125 C   0  0  0  0  0  0
   -2.4536    0.0753   -1.5335 C   0  0  0  0  0  0
   -0.7444    3.4170   -1.7678 N   0  0  0  0  0  0
    0.5919    3.9983   -1.6730 C   0  0  0  0  0  0
    1.1448    4.0198   -0.2345 C   0  0  0  0  0  0
    1.6844    2.6660    0.2487 C   0  0  0  0  0  0
    2.2467    2.7179    1.6824 C   0  0  0  0  0  0
    2.8367    1.4505    2.1016 N   0  0  0  0  0  0
    5.3061   -2.3941    0.3531 H   0  0  0  0  0  0
    3.8003   -4.3225    0.1545 H   0  0  0  0  0  0
    1.4622   -4.2043    0.8220 H   0  0  0  0  0  0
    4.5348   -0.2343    1.2400 H   0  0  0  0  0  0
    0.2649    1.2575    2.9137 H   0  0  0  0  0  0
   -1.1782   -0.7508    2.6947 H   0  0  0  0  0  0
   -0.2933   -3.9977    1.7498 H   0  0  0  0  0  0
   -1.3406   -2.9589    2.6230 H   0  0  0  0  0  0
   -2.4619   -3.3994    0.5060 H   0  0  0  0  0  0
   -1.9992   -1.7297    0.5677 H   0  0  0  0  0  0
    0.1442   -2.5204   -0.8036 H   0  0  0  0  0  0
   -0.7628   -3.9739   -1.0696 H   0  0  0  0  0  0
   -1.0720   -2.5283   -2.9849 H   0  0  0  0  0  0
   -2.5970   -2.5352   -2.1890 H   0  0  0  0  0  0
    0.4911   -0.9414   -2.7150 H   0  0  0  0  0  0
    0.9851    1.4928   -2.6446 H   0  0  0  0  0  0
   -3.1404    3.4059   -0.9561 H   0  0  0  0  0  0
   -5.2939    2.4696   -0.2660 H   0  0  0  0  0  0
   -5.6797    0.0181   -0.3460 H   0  0  0  0  0  0
   -3.9437   -1.4843   -1.1058 H   0  0  0  0  0  0
   -1.5076    3.9971   -1.4499 H   0  0  0  0  0  0
    1.2969    3.5339   -2.3604 H   0  0  0  0  0  0
    0.4969    5.0291   -2.0151 H   0  0  0  0  0  0
    1.9594    4.7440   -0.1930 H   0  0  0  0  0  0
    0.3814    4.3883    0.4521 H   0  0  0  0  0  0
    0.8835    1.9305    0.2037 H   0  0  0  0  0  0
    2.4610    2.3227   -0.4361 H   0  0  0  0  0  0
    3.0285    3.4761    1.7357 H   0  0  0  0  0  0
    1.4770    3.0273    2.3896 H   0  0  0  0  0  0
    3.7967    1.3141    1.8185 H   0  0  0  0  0  0
  1  2  2  0  0  0
  1  6  1  0  0  0
  1 31  1  0  0  0
  2  3  1  0  0  0
  2 32  1  0  0  0
  3  4  2  0  0  0
  3 33  1  0  0  0
  4  5  1  0  0  0
  4 10  1  0  0  0
  5  6  2  0  0  0
  5  7  1  0  0  0
  6 34  1  0  0  0
  7  8  2  0  0  0
  7 30  1  0  0  0
  8  9  1  0  0  0
  8 35  1  0  0  0
  9 10  2  0  0  0
  9 36  1  0  0  0
 10 11  1  0  0  0
 11 12  1  0  0  0
 11 37  1  0  0  0
 11 38  1  0  0  0
 12 13  1  0  0  0
 12 39  1  0  0  0
 12 40  1  0  0  0
 13 14  1  0  0  0
 13 41  1  0  0  0
 13 42  1  0  0  0
 14 15  1  0  0  0
 14 43  1  0  0  0
 14 44  1  0  0  0
 15 16  2  0  0  0
 15 24  1  0  0  0
 16 17  1  0  0  0
 16 45  1  0  0  0
 17 18  2  0  0  0
 17 46  1  0  0  0
 18 19  1  0  0  0
 18 25  1  0  0  0
 19 20  2  0  0  0
 19 24  1  0  0  0
 20 21  1  0  0  0
 20 47  1  0  0  0
 21 22  2  0  0  0
 21 48  1  0  0  0
 22 23  1  0  0  0
 22 49  1  0  0  0
 23 24  2  0  0  0
 23 50  1  0  0  0
 25 26  1  0  0  0
 25 51  1  0  0  0
 26 27  1  0  0  0
 26 52  1  0  0  0
 26 53  1  0  0  0
 27 28  1  0  0  0
 27 54  1  0  0  0
 27 55  1  0  0  0
 28 29  1  0  0  0
 28 56  1  0  0  0
 28 57  1  0  0  0
 29 30  1  0  0  0
 29 58  1  0  0  0
 29 59  1  0  0  0
 30 60  1  0  0  0
M  CHG  2  10   1  15   1
M  END
> <i_epik_Tot_Q>
2

> <i_epik_Tot_abs_Q>
2

> <i_f3d_flags>
0

> <i_lp_mmshare_version>
64135

> <i_m_source_file_index>
1

> <b_lp_Chiralities_Consistent>
1

> <r_epik_Charging_Adjusted_Penalty>
0

> <r_epik_Ionization_Penalty>
8.14488e-07

> <r_epik_Ionization_Penalty_Charging>
0

> <r_epik_Ionization_Penalty_Neutral>
8.14488e-07

> <r_epik_State_Penalty>
-0

> <r_lp_Energy>
63.761

> <r_lp_tautomer_probability>
1

> <s_epik_cmdline>
J2VwaWtfcHl0aG9uJywgJy1waCcsICc3LjAnLCAnLXRuJywgJzgnLCAnLW1hJywgJzIwMCcsICctaW1hZScsICc8aW5maWxlLm1hZT4nLCAnLW9tYWUnLCAnPG91dGZpbGUubWFlPic=

> <s_epik_input>
W2NIXTFbY0hdW2NIXVtjSF1jKGMxMiljM1tjSF1bY0hdW24rXTJbQ0gyXVtDSDJdW0NIMl1bQ0gyXVtuK100YzVjKFtjSF1bY0hdW2NIXVtjSF01KWMoW2NIXVtjSF00KVtOSF1bQ0gyXVtDSDJdW0NIMl1bQ0gyXVtOSF0z

> <s_lp_Force_Field>
OPLS_2005

> <s_lp_Variant>
MCD00100-1

> <s_m_source_file>
MCD00100.smi

$$$$
MCD00101
                    3D
 Schrodinger Suite 2023-4.
 60 64  0  0  1  0            999 V2000
   -3.4989    1.2848   -2.7816 C   0  0  0  0  0  0
   -3.9274   -0.0279   -2.5242 C   0  0  0  0  0  0
   -3.0158   -1.0917   -2.4046 C   0  0  0  0  0  0
   -1.6475   -0.7647   -2.5627 C   0  0  0  0  0  0
   -1.1886    0.5608   -2.8226 C   0  0  0  0  0  0
   -2.1366    1.6072   -2.9325 C   0  0  0  0  0  0
    0.1919    0.8705   -2.9548 C   0  0  0  0  0  0
    1.0848   -0.2167   -2.8682 C   0  0  0  0  0  0
    0.6157   -1.5112   -2.6191 C   0  0  0  0  0  0
   -0.7049   -1.7583   -2.4476 N   0  3  0  0  0  0
   -1.0598   -3.1637   -2.0947 C   0  0  0  0  0  0
   -1.3310   -3.3282   -0.5819 C   0  0  0  0  0  0
   -0.1150   -2.9993    0.3015 C   0  0  0  0  0  0
   -0.4040   -3.1220    1.8076 C   0  0  0  0  0  0
    0.8018   -2.7558    2.7020 C   0  0  0  0  0  0
    1.2308   -1.3442    2.5048 N   0  3  0  0  0  0
    2.3140   -1.1456    1.7123 C   0  0  0  0  0  0
    2.7540    0.1471    1.3913 C   0  0  0  0  0  0
    2.0656    1.2654    1.9037 C   0  0  0  0  0  0
    0.9651    1.0422    2.7730 C   0  0  0  0  0  0
    0.2549    2.1316    3.3352 C   0  0  0  0  0  0
   -0.8463    1.9136    4.1807 C   0  0  0  0  0  0
   -1.2564    0.6032    4.4716 C   0  0  0  0  0  0
   -0.5667   -0.4899    3.9175 C   0  0  0  0  0  0
    0.5513   -0.2937    3.0654 C   0  0  0  0  0  0
    2.4394    2.5665    1.5211 N   0  0  0  0  0  0
    2.7081    2.8012    0.1046 C   0  0  0  0  0  0
    1.4864    2.4992   -0.7827 C   0  0  0  0  0  0
    1.7907    2.5999   -2.2892 C   0  0  0  0  0  0
    0.6588    2.1877   -3.1144 N   0  0  0  0  0  0
   -4.2365    2.0701   -2.8644 H   0  0  0  0  0  0
   -4.9840   -0.2246   -2.4141 H   0  0  0  0  0  0
   -3.3951   -2.0803   -2.2002 H   0  0  0  0  0  0
   -1.8544    2.6313   -3.1267 H   0  0  0  0  0  0
    2.1486   -0.0654   -2.9753 H   0  0  0  0  0  0
    1.2918   -2.3478   -2.5178 H   0  0  0  0  0  0
   -1.9049   -3.4761   -2.7071 H   0  0  0  0  0  0
   -0.2428   -3.8204   -2.3977 H   0  0  0  0  0  0
   -2.1727   -2.7049   -0.2806 H   0  0  0  0  0  0
   -1.6397   -4.3566   -0.3916 H   0  0  0  0  0  0
    0.7208   -3.6465    0.0330 H   0  0  0  0  0  0
    0.2018   -1.9791    0.0908 H   0  0  0  0  0  0
   -1.2612   -2.4982    2.0608 H   0  0  0  0  0  0
   -0.7057   -4.1461    2.0290 H   0  0  0  0  0  0
    0.5921   -2.9082    3.7603 H   0  0  0  0  0  0
    1.6448   -3.4125    2.4814 H   0  0  0  0  0  0
    2.7976   -2.0254    1.3131 H   0  0  0  0  0  0
    3.6077    0.2636    0.7406 H   0  0  0  0  0  0
    0.5417    3.1523    3.1305 H   0  0  0  0  0  0
   -1.3781    2.7529    4.6052 H   0  0  0  0  0  0
   -2.1042    0.4348    5.1196 H   0  0  0  0  0  0
   -0.9285   -1.4739    4.1703 H   0  0  0  0  0  0
    1.9458    3.3154    1.9854 H   0  0  0  0  0  0
    2.9935    3.8465   -0.0161 H   0  0  0  0  0  0
    3.5703    2.2164   -0.2146 H   0  0  0  0  0  0
    1.1271    1.4949   -0.5606 H   0  0  0  0  0  0
    0.6691    3.1745   -0.5261 H   0  0  0  0  0  0
    2.0345    3.6322   -2.5414 H   0  0  0  0  0  0
    2.6720    2.0119   -2.5442 H   0  0  0  0  0  0
   -0.0557    2.8918   -3.2319 H   0  0  0  0  0  0
  1  2  2  0  0  0
  1  6  1  0  0  0
  1 31  1  0  0  0
  2  3  1  0  0  0
  2 32  1  0  0  0
  3  4  2  0  0  0
  3 33  1  0  0  0
  4  5  1  0  0  0
  4 10  1  0  0  0
  5  6  2  0  0  0
  5  7  1  0  0  0
  6 34  1  0  0  0
  7  8  2  0  0  0
  7 30  1  0  0  0
  8  9  1  0  0  0
  8 35  1  0  0  0
  9 10  2  0  0  0
  9 36  1  0  0  0
 10 11  1  0  0  0
 11 12  1  0  0  0
 11 37  1  0  0  0
 11 38  1  0  0  0
 12 13  1  0  0  0
 12 39  1  0  0  0
 12 40  1  0  0  0
 13 14  1  0  0  0
 13 41  1  0  0  0
 13 42  1  0  0  0
 14 15  1  0  0  0
 14 43  1  0  0  0
 14 44  1  0  0  0
 15 16  1  0  0  0
 15 45  1  0  0  0
 15 46  1  0  0  0
 16 17  2  0  0  0
 16 25  1  0  0  0
 17 18  1  0  0  0
 17 47  1  0  0  0
 18 19  2  0  0  0
 18 48  1  0  0  0
 19 20  1  0  0  0
 19 26  1  0  0  0
 20 21  2  0  0  0
 20 25  1  0  0  0
 21 22  1  0  0  0
 21 49  1  0  0  0
 22 23  2  0  0  0
 22 50  1  0  0  0
 23 24  1  0  0  0
 23 51  1  0  0  0
 24 25  2  0  0  0
 24 52  1  0  0  0
 26 27  1  0  0  0
 26 53  1  0  0  0
 27 28  1  0  0  0
 27 54  1  0  0  0
 27 55  1  0  0  0
 28 29  1  0  0  0
 28 56  1  0  0  0
 28 57  1  0  0  0
 29 30  1  0  0  0
 29 58  1  0  0  0
 29 59  1  0  0  0
 30 60  1  0  0  0
M  CHG  2  10   1  16   1
M  END
> <i_epik_Tot_Q>
2

> <i_epik_Tot_abs_Q>
2

> <i_f3d_flags>
0

> <i_lp_mmshare_version>
64135

> <i_m_source_file_index>
1

> <b_lp_Chiralities_Consistent>
1

> <r_epik_Charging_Adjusted_Penalty>
0

> <r_epik_Ionization_Penalty>
8.06052e-07

> <r_epik_Ionization_Penalty_Charging>
0

> <r_epik_Ionization_Penalty_Neutral>
8.06052e-07

> <r_epik_State_Penalty>
-0

> <r_lp_Energy>
60.822

> <r_lp_tautomer_probability>
1

> <s_epik_cmdline>
J2VwaWtfcHl0aG9uJywgJy1waCcsICc3LjAnLCAnLXRuJywgJzgnLCAnLW1hJywgJzIwMCcsICctaW1hZScsICc8aW5maWxlLm1hZT4nLCAnLW9tYWUnLCAnPG91dGZpbGUubWFlPic=

> <s_epik_input>
W2NIXTFbY0hdW2NIXVtjSF1jKGMxMiljM1tjSF1bY0hdW24rXTJbQ0gyXVtDSDJdW0NIMl1bQ0gyXVtDSDJdW24rXTRjNWMoW2NIXVtjSF1bY0hdW2NIXTUpYyhbY0hdW2NIXTQpW05IXVtDSDJdW0NIMl1bQ0gyXVtOSF0z

> <s_lp_Force_Field>
OPLS_2005

> <s_lp_Variant>
MCD00101-1

> <s_m_source_file>
MCD00101.smi

$$$$
